@<TRIPOS>MOLECULE
metal_large_resp
   95   102     1     0     0
SMALL
USER_CHARGES


@<TRIPOS>ATOM
      1 CMA     -6.7268    0.5180   35.2120 c         1 ACE     -0.089475
      2 CAC     -6.3186   -0.1260   33.9061 c         1 ACE      0.419262
      3 OAC     -6.1436   -1.3241   33.7877 o         1 ACE     -0.433810
      4 H1A     -7.5062    1.2690   35.0716 h         1 ACE      0.034674
      5 H2A     -5.8549    1.0052   35.6528 h         1 ACE      0.034674
      6 H3A     -7.0806   -0.2569   35.8865 h         1 ACE      0.034674
      7 N       -6.1116    0.7395   32.8766 N         1 CYM     -0.415700
      8 CA      -5.7986    0.2901   31.5308 CX        1 CYM     -0.035100
      9 C       -4.6377   -0.7128   31.5413 C         1 CYM      0.597300
     10 O       -3.5200   -0.3921   31.9115 O         1 CYM     -0.567900
     11 CB      -5.4074    1.5087   30.7025 CT        1 CYM     -0.042060
     12 SG      -5.2526    1.1447   28.9260 SH        1 CYM     -0.307250
     13 H       -6.4597    1.6786   32.9759 H         1 CYM      0.256144
     14 HA      -6.6704   -0.1901   31.0840 H1        1 CYM      0.108932
     15 HB2     -6.1430    2.3034   30.8491 H1        1 CYM      0.068834
     16 HB3     -4.4354    1.8573   31.0546 H1        1 CYM      0.068834
     17 NNM     -4.9386   -1.9290   31.0473 n         1 NME     -0.274605
     18 CNM     -3.9628   -2.9934   31.1053 c         1 NME     -0.143702
     19 HNM     -5.9123   -2.1890   31.0045 h         1 NME      0.188980
     20 H1M     -3.6825   -3.2196   32.1366 h         1 NME      0.076442
     21 H2M     -4.3910   -3.8845   30.6516 h         1 NME      0.076442
     22 H3M     -3.0657   -2.7010   30.5592 h         1 NME      0.076442
     23 CAA    -10.2795    1.6579   33.1671 c3        1 HEM     -0.057121
     24 CAB     -6.8422    5.2186   24.6225 ce        1 HEM     -0.092242
     25 CAC     -5.9383   -2.5762   24.1562 ce        1 HEM     -0.114296
     26 CAD     -9.1295   -3.4504   31.4232 c3        1 HEM     -0.023506
     27 NA      -8.6745    1.7278   29.7599 nd        1 HEM     -0.065018
     28 CBA    -11.7952    1.9108   33.2296 c3        1 HEM     -0.038059
     29 CBB     -6.3197    6.4425   24.5545 c2        1 HEM     -0.343127
     30 CBC     -5.2389   -3.5370   24.7520 c2        1 HEM     -0.296269
     31 CBD     -7.9507   -4.1257   32.1484 c3        1 HEM      0.013089
     32 NB      -7.7842    2.7932   27.2478 nc        1 HEM     -0.127778
     33 CGA    -12.2070    3.1946   34.0192 c         1 HEM      0.649293
     34 CGD     -8.3975   -5.4400   32.8428 c         1 HEM      0.613567
     35 ND      -8.1592   -0.8782   28.8466 nd        1 HEM     -0.092271
     36 CHA     -9.1860   -0.3106   30.9888 ce        1 HEM     -0.095209
     37 CHB     -8.5873    4.0926   29.1586 ce        1 HEM     -0.076279
     38 CHC     -6.8963    2.1934   25.0605 cf        1 HEM     -0.107221
     39 CHD     -7.2338   -2.2074   27.0087 ce        1 HEM     -0.074559
     40 CMA     -9.8526    4.5758   31.8935 c3        1 HEM     -0.052989
     41 CMB     -8.0672    6.5068   27.3528 c3        1 HEM     -0.091331
     42 CMC     -5.8730    0.3034   22.8672 c3        1 HEM     -0.100307
     43 CMD     -7.8842   -4.6158   28.8120 c3        1 HEM     -0.103250
     44 C1A     -9.1679    1.0655   30.8505 cc        1 HEM     -0.023543
     45 C1B     -8.0747    3.9687   27.8629 cc        1 HEM     -0.011408
     46 C1C     -6.8487    0.8210   25.2198 cd        1 HEM     -0.024899
     47 C1D     -7.7997   -2.0661   28.2513 cc        1 HEM     -0.085505
     48 O1A    -13.3959    3.5344   33.8665 o         1 HEM     -0.702913
     49 O1D     -7.6085   -6.4057   32.7437 o         1 HEM     -0.710554
     50 C2A     -9.6656    2.0090   31.8495 cc        1 HEM     -0.000479
     51 C2B     -7.8000    5.0810   26.9958 cc        1 HEM      0.034994
     52 C2C     -6.3724   -0.0909   24.2210 cd        1 HEM     -0.004537
     53 C2D     -8.1230   -3.1753   29.1189 cc        1 HEM      0.043644
     54 O2A    -11.3199    3.7397   34.7193 o         1 HEM     -0.691432
     55 O2D     -9.5120   -5.3835   33.4068 o         1 HEM     -0.694234
     56 C3A     -9.4885    3.2469   31.3195 cd        1 HEM      0.011302
     57 C3B     -7.3090    4.5469   25.8308 cc        1 HEM     -0.024436
     58 C3C     -6.4041   -1.3373   24.7841 cc        1 HEM     -0.003298
     59 C3D     -8.6811   -2.6574   30.2423 cd        1 HEM     -0.038906
     60 C4A     -8.8803    3.0649   30.0167 cd        1 HEM     -0.047475
     61 C4B     -7.3208    3.1155   26.0037 cc        1 HEM     -0.034956
     62 C4C     -6.9411   -1.1733   26.1170 cd        1 HEM     -0.014957
     63 C4D     -8.7010   -1.2132   30.0553 cd        1 HEM     -0.025308
     64 NC      -7.1910    0.1387   26.3613 nc        1 HEM     -0.056100
     65 HAA1    -9.8489    2.2948   33.9467 hc        1 HEM      0.040284
     66 HAA2   -10.0401    0.6250   33.4246 hc        1 HEM      0.040284
     67 HAB     -6.9199    4.6467   23.7014 ha        1 HEM      0.095696
     68 HAC     -6.1763   -2.6955   23.1020 ha        1 HEM      0.097577
     69 HAD1    -9.8074   -4.2350   31.0785 hc        1 HEM      0.029704
     70 HAD2    -9.7096   -2.8553   32.1254 hc        1 HEM      0.029704
     71 HBA1   -12.2991    1.0745   33.7203 hc        1 HEM     -0.007446
     72 HBA2   -12.2280    1.9865   32.2303 hc        1 HEM     -0.007446
     73 HBB1    -6.0144    6.8604   23.6037 ha        1 HEM      0.129745
     74 HBB2    -6.1585    7.0435   25.4404 ha        1 HEM      0.129745
     75 HBC1    -4.9287   -4.4184   24.2056 ha        1 HEM      0.129564
     76 HBC2    -4.9397   -3.4653   25.7898 ha        1 HEM      0.129564
     77 HBD1    -7.5314   -3.4474   32.8964 hc        1 HEM     -0.008023
     78 HBD2    -7.1496   -4.3634   31.4448 hc        1 HEM     -0.008023
     79 HHA     -9.5975   -0.7185   31.9014 ha        1 HEM      0.136616
     80 HHB     -8.7910    5.0930   29.5169 ha        1 HEM      0.091417
     81 HHC     -6.5526    2.5759   24.1082 ha        1 HEM      0.131288
     82 HHD     -7.0247   -3.2165   26.6840 ha        1 HEM      0.094905
     83 HMA1   -10.1901    4.4844   32.9261 hc        1 HEM      0.032694
     84 HMA2   -10.6664    5.0327   31.3230 hc        1 HEM      0.032694
     85 HMA3    -9.0009    5.2612   31.8516 hc        1 HEM      0.032694
     86 HMB1    -9.0292    6.6047   27.8573 hc        1 HEM      0.039405
     87 HMB2    -8.0906    7.1416   26.4690 hc        1 HEM      0.039405
     88 HMB3    -7.3051    6.9001   28.0309 hc        1 HEM      0.039405
     89 HMC1    -5.3779   -0.5316   22.3703 hc        1 HEM      0.039657
     90 HMC2    -5.1499    1.1189   22.9455 hc        1 HEM      0.039657
     91 HMC3    -6.6833    0.6547   22.2214 hc        1 HEM      0.039657
     92 HMD1    -8.3221   -5.2551   29.5773 hc        1 HEM      0.047825
     93 HMD2    -6.8153   -4.8413   28.7805 hc        1 HEM      0.047825
     94 HMD3    -8.3075   -4.8911   27.8430 hc        1 HEM      0.047825
     95 FE      -7.4553    0.9760   28.2597 fe        1 FE       0.293950
@<TRIPOS>BOND
     1    1    2 1
     2    1    4 1
     3    1    5 1
     4    1    6 1
     5    2    3 1
     6    2    7 1
     7    7    8 1
     8    7   13 1
     9    8    9 1
    10    8   11 1
    11    8   14 1
    12    9   10 1
    13    9   17 1
    14   11   12 1
    15   11   15 1
    16   11   16 1
    17   12   95 1
    18   17   18 1
    19   17   19 1
    20   18   20 1
    21   18   21 1
    22   18   22 1
    23   23   28 1
    24   23   50 1
    25   23   65 1
    26   23   66 1
    27   24   29 1
    28   24   57 1
    29   24   67 1
    30   25   30 1
    31   25   58 1
    32   25   68 1
    33   26   31 1
    34   26   59 1
    35   26   69 1
    36   26   70 1
    37   27   44 1
    38   27   60 1
    39   27   95 1
    40   28   33 1
    41   28   71 1
    42   28   72 1
    43   29   73 1
    44   29   74 1
    45   30   75 1
    46   30   76 1
    47   31   34 1
    48   31   77 1
    49   31   78 1
    50   32   45 1
    51   32   61 1
    52   32   95 1
    53   33   48 1
    54   33   54 1
    55   34   49 1
    56   34   55 1
    57   35   47 1
    58   35   63 1
    59   35   95 1
    60   36   44 1
    61   36   63 1
    62   36   79 1
    63   37   45 1
    64   37   60 1
    65   37   80 1
    66   38   46 1
    67   38   61 1
    68   38   81 1
    69   39   47 1
    70   39   62 1
    71   39   82 1
    72   40   56 1
    73   40   83 1
    74   40   84 1
    75   40   85 1
    76   41   51 1
    77   41   86 1
    78   41   87 1
    79   41   88 1
    80   42   52 1
    81   42   89 1
    82   42   90 1
    83   42   91 1
    84   43   53 1
    85   43   92 1
    86   43   93 1
    87   43   94 1
    88   44   50 1
    89   45   51 1
    90   46   52 1
    91   46   64 1
    92   47   53 1
    93   50   56 1
    94   51   57 1
    95   52   58 1
    96   53   59 1
    97   56   60 1
    98   57   61 1
    99   58   62 1
   100   59   63 1
   101   62   64 1
   102   64   95 1
@<TRIPOS>SUBSTRUCTURE
     1 metal_large_resp        1 TEMP              0 ****  ****    0 ROOT
