@<TRIPOS>MOLECULE
metal_large_resp
   95   102     1     0     0
SMALL
USER_CHARGES


@<TRIPOS>ATOM
      1 CMA     -6.4228    0.4111   35.2284 c         1 ACE     -0.198639
      2 CAC     -5.9323   -0.0872   33.8878 c         1 ACE      0.437249
      3 OAC     -5.6003   -1.2430   33.7074 o         1 ACE     -0.434714
      4 H1A     -7.2938    1.0606   35.1271 h         1 ACE      0.061896
      5 H2A     -5.6310    0.9678   35.7334 h         1 ACE      0.052144
      6 H3A     -6.6850   -0.4570   35.8271 h         1 ACE      0.082065
      7 N       -5.8613    0.8459   32.8944 N         1 CYM     -0.415700
      8 CA      -5.6813    0.4582   31.5019 CX        1 CYM     -0.035100
      9 C       -4.5184   -0.5306   31.3391 C         1 CYM      0.597300
     10 O       -3.3590   -0.1950   31.5079 O         1 CYM     -0.567900
     11 CB      -5.3976    1.6981   30.6673 CT        1 CYM      0.179323
     12 SG      -5.2310    1.2938   28.9001 SH        1 CYM     -0.728065
     13 H       -6.3070    1.7343   33.0591 H         1 CYM      0.268696
     14 HA      -6.5931   -0.0192   31.1314 H1        1 CYM      0.034796
     15 HB3     -6.1903    2.4367   30.8102 H1        1 CYM     -0.120005
     16 HB2     -4.4491    2.1219   30.9965 H1        1 CYM      0.092531
     17 NNM     -4.8963   -1.7560   30.9194 n         1 NME     -0.376651
     18 CNM     -3.9278   -2.8288   30.8782 c         1 NME     -0.355499
     19 HNM     -5.8537   -2.0102   31.1122 h         1 NME      0.295096
     20 H1M     -3.4214   -2.9444   31.8399 h         1 NME      0.152121
     21 H2M     -4.4466   -3.7538   30.6347 h         1 NME      0.140151
     22 H3M     -3.1758   -2.6219   30.1162 h         1 NME      0.144782
     23 CAA    -10.3254    1.6652   33.1678 c3        1 HEM     -0.099331
     24 CAB     -6.7730    5.2115   24.6733 ce        1 HEM     -0.083899
     25 CAC     -6.0211   -2.6327   24.1330 ce        1 HEM     -0.123513
     26 CAD     -9.2690   -3.4462   31.3753 c3        1 HEM     -0.135394
     27 NA      -8.6435    1.6981   29.7887 nc        1 HEM     -1.118188
     28 CBA    -11.8616    1.7775   33.1002 c3        1 HEM     -0.020911
     29 CBB     -6.1495    6.3869   24.6746 c2        1 HEM     -0.416826
     30 CBC     -5.5496   -3.7446   24.6893 c2        1 HEM     -0.330326
     31 CBD     -8.0935   -3.7682   32.3126 c3        1 HEM     -0.029709
     32 NB      -7.7558    2.7546   27.2675 nd        1 HEM     -0.938542
     33 CGA    -12.4974    2.5874   34.2742 c         1 HEM      0.635637
     34 CGD     -8.4812   -4.9865   33.1921 c         1 HEM      0.612720
     35 ND      -8.1452   -0.9081   28.8506 nc        1 HEM     -1.907202
     36 CHA     -9.1310   -0.3457   31.0154 cf        1 HEM     -0.820579
     37 CHB     -8.6552    4.0505   29.1393 ce        1 HEM     -0.375499
     38 CHC     -6.6305    2.1732   25.1796 ce        1 HEM     -0.297921
     39 CHD     -7.3560   -2.2458   26.9556 ce        1 HEM     -0.442065
     40 CMA     -9.9328    4.5072   31.9309 c3        1 HEM     -0.112711
     41 CMB     -8.1509    6.4643   27.2662 c3        1 HEM     -0.199259
     42 CMC     -5.5067    0.2548   23.0131 c3        1 HEM     -0.242540
     43 CMD     -8.2577   -4.6435   28.6048 c3        1 HEM     -0.273500
     44 C1A     -9.1211    1.0306   30.8823 cc        1 HEM      0.711054
     45 C1B     -8.1153    3.9242   27.8513 cd        1 HEM      0.313809
     46 C1C     -6.5998    0.7966   25.3153 cd        1 HEM      0.302571
     47 C1D     -7.9217   -2.0988   28.1941 cc        1 HEM      0.746267
     48 O1A    -13.6651    2.2742   34.5720 o         1 HEM     -0.693047
     49 O1D     -7.7620   -6.0020   33.0699 o         1 HEM     -0.697438
     50 C2A     -9.6555    1.9689   31.8666 cc        1 HEM     -0.199105
     51 C2B     -7.8205    5.0352   26.9860 cd        1 HEM      0.038626
     52 C2C     -6.1165   -0.1179   24.3249 cd        1 HEM     -0.004557
     53 C2D     -8.3546   -3.2105   29.0119 cc        1 HEM      0.014318
     54 O2A    -11.7796    3.5017   34.7482 o         1 HEM     -0.699147
     55 O2D     -9.5125   -4.8252   33.8777 o         1 HEM     -0.679941
     56 C3A     -9.5076    3.2063   31.3298 cd        1 HEM      0.030637
     57 C3B     -7.2259    4.5043   25.8709 cc        1 HEM     -0.054659
     58 C3C     -6.3203   -1.3765   24.8230 cc        1 HEM     -0.021692
     59 C3D     -8.8174   -2.6921   30.1761 cd        1 HEM     -0.316470
     60 C4A     -8.8998    3.0331   30.0233 cd        1 HEM      0.428428
     61 C4B     -7.1945    3.0781   26.0625 cc        1 HEM      0.259683
     62 C4C     -6.9254   -1.2094   26.1229 cc        1 HEM      0.328906
     63 C4D     -8.6985   -1.2441   30.0514 cd        1 HEM      1.230884
     64 NC      -7.0790    0.1073   26.4025 nd        1 HEM     -0.846972
     65 HAA1   -10.0085    2.4066   33.9066 hc        1 HEM      0.059021
     66 HAA2   -10.0266    0.6851   33.5431 hc        1 HEM      0.054827
     67 HAB     -6.9913    4.7418   23.7167 ha        1 HEM      0.126715
     68 HAC     -6.2142   -2.6404   23.0623 ha        1 HEM      0.120413
     69 HAD1    -9.7187   -4.3877   31.0540 hc        1 HEM      0.099728
     70 HAD2   -10.0438   -2.9207   31.9321 hc        1 HEM      0.041449
     71 HBA1   -12.3387    0.8005   33.0344 hc        1 HEM     -0.019905
     72 HBA2   -12.1470    2.3279   32.1983 hc        1 HEM      0.008620
     73 HBB1    -5.8952    6.8895   23.7500 ha        1 HEM      0.144091
     74 HBB2    -5.8598    6.8713   25.5993 ha        1 HEM      0.173963
     75 HBC1    -5.3944   -4.6353   24.0940 ha        1 HEM      0.131110
     76 HBC2    -5.3025   -3.7917   25.7422 ha        1 HEM      0.134349
     77 HBD1    -7.8648   -2.9028   32.9417 hc        1 HEM     -0.008822
     78 HBD2    -7.2032   -4.0117   31.7274 hc        1 HEM     -0.008645
     79 HHA     -9.5485   -0.7616   31.9214 ha        1 HEM      0.277176
     80 HHB     -8.9118    5.0493   29.4662 ha        1 HEM      0.130436
     81 HHC     -6.1804    2.5859   24.2870 ha        1 HEM      0.115225
     82 HHD     -7.2496   -3.2534   26.5799 ha        1 HEM      0.148986
     83 HMA1   -10.3795    4.3541   32.9165 hc        1 HEM      0.072342
     84 HMA2   -10.6810    5.0041   31.3057 hc        1 HEM      0.040123
     85 HMA3    -9.0842    5.1918   32.0286 hc        1 HEM      0.013325
     86 HMB1    -9.0347    6.5485   27.8997 hc        1 HEM      0.074371
     87 HMB2    -8.3428    6.9994   26.3343 hc        1 HEM      0.063663
     88 HMB3    -7.3268    6.9694   27.7767 hc        1 HEM      0.052327
     89 HMC1    -4.8232   -0.5234   22.6711 hc        1 HEM      0.074962
     90 HMC2    -4.9395    1.1834   23.0961 hc        1 HEM      0.075388
     91 HMC3    -6.2715    0.3958   22.2431 hc        1 HEM      0.072709
     92 HMD1    -8.6242   -5.2935   29.3968 hc        1 HEM      0.128669
     93 HMD2    -7.2216   -4.9272   28.4002 hc        1 HEM      0.068876
     94 HMD3    -8.8350   -4.8397   27.6958 hc        1 HEM      0.061907
     95 FE      -7.4162    0.9511   28.2903 fe        1 FE       2.694124
@<TRIPOS>BOND
     1    1    2 1
     2    1    4 1
     3    1    5 1
     4    1    6 1
     5    2    3 1
     6    2    7 1
     7    7    8 1
     8    7   13 1
     9    8    9 1
    10    8   11 1
    11    8   14 1
    12    9   10 1
    13    9   17 1
    14   11   12 1
    15   11   15 1
    16   11   16 1
    17   12   95 1
    18   17   18 1
    19   17   19 1
    20   18   20 1
    21   18   21 1
    22   18   22 1
    23   23   28 1
    24   23   50 1
    25   23   65 1
    26   23   66 1
    27   24   29 1
    28   24   57 1
    29   24   67 1
    30   25   30 1
    31   25   58 1
    32   25   68 1
    33   26   31 1
    34   26   59 1
    35   26   69 1
    36   26   70 1
    37   27   44 1
    38   27   60 1
    39   27   95 1
    40   28   33 1
    41   28   71 1
    42   28   72 1
    43   29   73 1
    44   29   74 1
    45   30   75 1
    46   30   76 1
    47   31   34 1
    48   31   77 1
    49   31   78 1
    50   32   45 1
    51   32   61 1
    52   32   95 1
    53   33   48 1
    54   33   54 1
    55   34   49 1
    56   34   55 1
    57   35   47 1
    58   35   63 1
    59   35   95 1
    60   36   44 1
    61   36   63 1
    62   36   79 1
    63   37   45 1
    64   37   60 1
    65   37   80 1
    66   38   46 1
    67   38   61 1
    68   38   81 1
    69   39   47 1
    70   39   62 1
    71   39   82 1
    72   40   56 1
    73   40   83 1
    74   40   84 1
    75   40   85 1
    76   41   51 1
    77   41   86 1
    78   41   87 1
    79   41   88 1
    80   42   52 1
    81   42   89 1
    82   42   90 1
    83   42   91 1
    84   43   53 1
    85   43   92 1
    86   43   93 1
    87   43   94 1
    88   44   50 1
    89   45   51 1
    90   46   52 1
    91   46   64 1
    92   47   53 1
    93   50   56 1
    94   51   57 1
    95   52   58 1
    96   53   59 1
    97   56   60 1
    98   57   61 1
    99   58   62 1
   100   59   63 1
   101   62   64 1
   102   64   95 1
@<TRIPOS>SUBSTRUCTURE
     1 metal_large_resp        1 TEMP              0 ****  ****    0 ROOT
