@<TRIPOS>MOLECULE
ACE
   30    29     1     0     0
SMALL
bcc


@<TRIPOS>ATOM
      1 CH3          7.1800    36.3570     5.1440 CT         2 ACE      -0.173100
      2 C            6.9450    34.8520     5.0290 C          2 ACE       0.657100
      3 O            6.4880    34.3640     3.9920 O          2 ACE      -0.609100
      4 H11          8.2510    36.5570     5.1590 HC         2 ACE       0.069033
      5 H12          6.7280    36.7260     6.0650 HC         2 ACE       0.069033
      6 H13          6.7280    36.8620     4.2900 HC         2 ACE       0.069033
      7 N            7.2120    34.1320     6.1120 N          2 ORN      -0.552900
      8 CA           7.6860    32.7880     5.8860 CT         2 ORN       0.032700
      9 C2           7.6650    31.5900     6.7910 C          2 ORN       0.632100
     10 O1           7.8940    31.6860     7.9900 O          2 ORN      -0.622100
     11 CB           9.1890    33.0730     5.8870 CT         2 ORN      -0.075400
     12 CG           9.6930    33.6250     7.2680 CT         2 ORN      -0.133400
     13 CD          11.2070    33.7550     7.3590 CT         2 ORN       0.153800
     14 NE          11.6640    34.3460     8.6150 NT         2 ORN      -0.904800
     15 H01          7.0180    32.4540     5.0920 H1         2 ORN       0.097700
     16 H02          9.3830    33.8370     5.1340 HC         2 ORN       0.055200
     17 H03          9.7210    32.1490     5.6630 HC         2 ORN       0.055200
     18 H04          9.3890    32.9060     8.0280 HC         2 ORN       0.052700
     19 H05          9.2520    34.6090     7.4280 HC         2 ORN       0.052700
     20 H06         11.5210    34.4220     6.5560 H1         2 ORN       0.050200
     21 H07         11.6460    32.7620     7.2640 H1         2 ORN       0.050200
     22 H08         10.9260    34.9120     9.0090 H          2 ORN       0.346300
     23 H09         11.9090    33.6120     9.2640 H          2 ORN       0.346300
     24 H10          7.0900    34.5040     7.0430 H          2 ORN       0.320500
     25 N1           7.5590    30.4200     6.1810 N          2 NME      -0.565900
     26 C1           7.8350    29.2370     6.9660 CT         2 NME       0.076300
     27 H21          8.9130    29.1030     7.0550 H1         2 NME       0.046367
     28 H22          7.4000    28.3660     6.4760 H1         2 NME       0.046367
     29 H23          7.4000    29.3500     7.9590 H1         2 NME       0.046367
     30 HN           7.2960    30.3560     5.2080 H          2 NME       0.313500
@<TRIPOS>BOND
     1     1     2 1   
     2     1     4 1   
     3     1     5 1   
     4     1     6 1   
     5     2     3 2   
     6     2     7 1   
     7     7     8 1   
     8     7    24 1   
     9     8     9 1   
    10     8    11 1   
    11     8    15 1   
    12     9    10 2   
    13     9    25 1   
    14    11    12 1   
    15    11    16 1   
    16    11    17 1   
    17    12    13 1   
    18    12    18 1   
    19    12    19 1   
    20    13    14 1   
    21    13    20 1   
    22    13    21 1   
    23    14    22 1   
    24    14    23 1   
    25    25    26 1   
    26    25    30 1   
    27    26    27 1   
    28    26    28 1   
    29    26    29 1   
@<TRIPOS>SUBSTRUCTURE
     1 ACE         1 TEMP              0 ****  ****    0 ROOT
