@<TRIPOS>MOLECULE
Molecule
   42    47     1     0     0
SMALL
abcg2


@<TRIPOS>ATOM
      1 C           -0.5320     0.9990     0.2130 ca         1 ***      -0.065800
      2 C1          -1.0970    -0.2160     0.1630 ca         1 ***      -0.193000
      3 C2          -2.4310    -0.3720     0.2540 ca         1 ***      -0.010300
      4 C3          -3.1370     0.7650     0.3960 ca         1 ***      -0.068800
      5 C4          -2.5720     1.9840     0.4470 ca         1 ***      -0.189000
      6 C5          -1.2370     2.1370     0.3550 ca         1 ***      -0.009300
      7 C6           0.7940     0.8610     0.1010 cc         1 ***      -0.182200
      8 C7           1.1260    -0.4360    -0.0250 cd         1 ***       0.008400
      9 S           -0.0880    -1.2680     0.0030 ss         1 ***       0.144400
     10 C8          -4.4650     0.8920     0.5090 cc         1 ***      -0.181200
     11 C9          -4.7610     2.1910     0.6320 cd         1 ***      -0.187400
     12 S1          -3.5740     3.0480     0.6070 ss         1 ***       0.121400
     13 C10         -0.5290     3.4750     0.4040 c3         1 ***      -0.055800
     14 C11         -3.1360    -1.7110     0.2040 c3         1 ***      -0.055800
     15 C12          2.3700    -0.9400    -0.1590 cd         1 ***      -0.193800
     16 C13          2.7140    -2.2280    -0.2860 cc         1 ***      -0.135000
     17 C14          4.0410    -2.3400    -0.3950 cc         1 ***      -0.091000
     18 C15          4.6510    -1.1430    -0.3480 cd         1 ***      -0.219000
     19 S2           3.5910    -0.1260    -0.1890 ss         1 ***       0.328000
     20 C16          5.9760    -0.8500    -0.4240 ca         1 ***       0.050000
     21 C17          6.9620    -1.7670    -0.5710 ca         1 ***      -0.064000
     22 C18          8.2680    -1.4190    -0.6410 ca         1 ***      -0.075000
     23 C19          8.6540    -0.1400    -0.5690 ca         1 ***      -0.067000
     24 C20          7.7040     0.7900    -0.4240 ca         1 ***      -0.096000
     25 C21          6.4120     0.4330    -0.3550 ca         1 ***      -0.107000
     26 N            6.8220    -3.0240    -0.6590 nc         1 ***      -0.270500
     27 S3           8.2930    -3.8570    -0.8360 ss         1 ***       0.526000
     28 N1           9.1010    -2.3630    -0.7780 nc         1 ***      -0.276500
     29 H            1.5020     1.7010     0.1120 ha         1 ***       0.206000
     30 H1          -5.2070     0.0830     0.5040 ha         1 ***       0.205000
     31 H2          -5.7800     2.5860     0.7420 h4         1 ***       0.220000
     32 H3           0.0450     3.6410    -0.5360 hc         1 ***       0.050367
     33 H4          -1.2020     4.3520     0.5180 hc         1 ***       0.050367
     34 H5           0.1770     3.5060     1.2640 hc         1 ***       0.050367
     35 H6          -2.4610    -2.5850     0.0810 hc         1 ***       0.050700
     36 H7          -3.7050    -1.8810     1.1470 hc         1 ***       0.050700
     37 H8          -3.8480    -1.7400    -0.6520 hc         1 ***       0.050700
     38 H9           2.0340    -3.0920    -0.3010 ha         1 ***       0.143000
     39 H10          4.4880    -3.3330    -0.5060 ha         1 ***       0.151000
     40 H11          9.7170     0.1440    -0.6260 ha         1 ***       0.139000
     41 H12          7.9930     1.8540    -0.3610 ha         1 ***       0.124000
     42 H13          5.7250     1.2880    -0.2360 ha         1 ***       0.126000
@<TRIPOS>BOND
     1     1     2 ar  
     2     1     6 ar  
     3     1     7 1   
     4     2     3 ar  
     5     2     9 1   
     6     3     4 ar  
     7     3    14 1   
     8     4     5 ar  
     9     4    10 1   
    10     5     6 ar  
    11     5    12 1   
    12     6    13 1   
    13     7     8 2   
    14     7    29 1   
    15     8     9 1   
    16     8    15 1   
    17    10    11 2   
    18    10    30 1   
    19    11    12 1   
    20    11    31 1   
    21    13    32 1   
    22    13    33 1   
    23    13    34 1   
    24    14    35 1   
    25    14    36 1   
    26    14    37 1   
    27    15    16 2   
    28    15    19 1   
    29    16    17 1   
    30    16    38 1   
    31    17    18 2   
    32    17    39 1   
    33    18    19 1   
    34    18    20 1   
    35    20    21 ar  
    36    20    25 ar  
    37    21    22 ar  
    38    21    26 2   
    39    22    23 ar  
    40    22    28 2   
    41    23    24 ar  
    42    23    40 1   
    43    24    25 ar  
    44    24    41 1   
    45    25    42 1   
    46    26    27 1   
    47    27    28 1   
@<TRIPOS>SUBSTRUCTURE
     1 ***         1 TEMP              0 ****  ****    0 ROOT
