@<TRIPOS>MOLECULE
metal_large_resp
  113   119     1     0     0
SMALL
USER_CHARGES


@<TRIPOS>ATOM
      1 CMA    -12.5543    1.5751   11.0874 c         1 ACE     -0.209404
      2 CAC    -11.5706    0.6762   10.3851 c         1 ACE      0.450273
      3 OAC    -11.2013    0.8538    9.2350 o         1 ACE     -0.476736
      4 H1A    -12.2564    1.7512   12.1201 h         1 ACE      0.078622
      5 H2A    -13.5325    1.0911   11.1066 h         1 ACE      0.078622
      6 H3A    -12.6336    2.5078   10.5371 h         1 ACE      0.078622
      7 N      -11.1070   -0.3750   11.1178 N         1 HID     -0.415700
      8 H      -11.4036   -0.5128   12.0776 H         1 HID      0.338981
      9 CA     -10.2390   -1.3356   10.4904 CX        1 HID      0.018800
     10 HA     -10.5954   -1.5086    9.4709 H1        1 HID      0.065060
     11 CB      -8.7864   -0.8130   10.3972 CT        1 HID     -0.066058
     12 HB2     -8.1506   -1.5159    9.8576 HC        1 HID      0.079510
     13 HB3     -8.8177    0.1091    9.8158 HC        1 HID      0.079510
     14 CG      -8.2236   -0.5772   11.7535 CC        1 HID     -0.091720
     15 ND1     -8.3772    0.6112   12.4311 NA        1 HID     -0.086035
     16 HD1     -8.8279    1.4378   12.0733 H         1 HID      0.315861
     17 CE1     -7.8784    0.4764   13.6673 CR        1 HID     -0.085684
     18 HE1     -7.8732    1.2442   14.4216 H5        1 HID      0.147914
     19 NE2     -7.4074   -0.7445   13.8289 NB        1 HID      0.029101
     20 CD2     -7.6124   -1.4117   12.6374 CV        1 HID     -0.099292
     21 HD2     -7.3135   -2.4369   12.4895 H4        1 HID      0.101867
     22 C      -10.2993   -2.6432   11.2667 C         1 HID      0.597300
     23 O      -10.9151   -2.7525   12.3174 O         1 HID     -0.567900
     24 N       -9.6269   -3.6775   10.7194 n         1 GLY     -0.435170
     25 CA      -9.5697   -4.9633   11.3572 c         1 GLY      0.021601
     26 C       -8.1455   -5.3832   11.6989 c         1 GLY      0.486359
     27 O       -7.1636   -4.7706   11.3188 o         1 GLY     -0.488999
     28 H       -9.0705   -3.5295    9.8941 h         1 GLY      0.301738
     29 HA2    -10.1681   -4.9083   12.2664 h         1 GLY      0.057236
     30 HA3    -10.0093   -5.7337   10.7171 h         1 GLY      0.057236
     31 N       -8.0929   -6.5150   12.4364 N         1 HID     -0.415700
     32 H       -8.9428   -7.0064   12.6798 H         1 HID      0.312926
     33 CA      -6.8790   -7.2673   12.6698 CX        1 HID      0.018800
     34 HA      -6.1506   -6.9822   11.9090 H1        1 HID      0.101360
     35 CB      -6.3165   -7.0096   14.0804 CT        1 HID      0.105552
     36 HB2     -7.0607   -7.3539   14.8000 HC        1 HID      0.064188
     37 HB3     -5.4230   -7.6199   14.2330 HC        1 HID      0.064188
     38 CG      -6.0120   -5.5757   14.3426 CC        1 HID     -0.273128
     39 ND1     -4.7572   -5.0243   14.2057 NA        1 HID     -0.102352
     40 HD1     -3.9210   -5.5181   13.9437 H         1 HID      0.307806
     41 CE1     -4.8264   -3.7153   14.5112 CR        1 HID     -0.034775
     42 HE1     -3.9809   -3.0483   14.5048 H5        1 HID      0.154499
     43 NE2     -6.0563   -3.3894   14.8352 NB        1 HID      0.010890
     44 CD2     -6.8063   -4.5411   14.7279 CV        1 HID     -0.023260
     45 HD2     -7.8645   -4.5488   14.9261 H4        1 HID      0.093464
     46 C       -7.2873   -8.7402   12.5729 C         1 HID      0.597300
     47 O       -8.3259   -9.0946   13.1074 O         1 HID     -0.567900
     48 NNM     -6.4594   -9.5691   11.9161 n         1 NME     -0.578417
     49 CNM     -6.8017  -10.9695   11.7095 c         1 NME      0.048984
     50 HNM     -5.6927   -9.1742   11.3995 h         1 NME      0.300783
     51 H1M     -7.3716  -11.3193   12.5656 h         1 NME      0.076216
     52 H2M     -7.4103  -11.0955   10.8131 h         1 NME      0.076216
     53 H3M     -5.8917  -11.5565   11.6153 h         1 NME      0.076216
     54 CMA    -12.8347   -4.7555   14.4984 c         1 ACE     -0.329360
     55 CAC    -12.6065   -3.6431   15.4916 c         1 ACE      0.531779
     56 OAC    -12.9588   -3.7305   16.6598 o         1 ACE     -0.516222
     57 H1A    -12.2873   -4.5990   13.5700 h         1 ACE      0.104601
     58 H2A    -13.9006   -4.8069   14.2767 h         1 ACE      0.104601
     59 H3A    -12.5492   -5.7000   14.9579 h         1 ACE      0.104601
     60 N      -11.9886   -2.5458   14.9908 N         1 HIE     -0.415700
     61 H      -11.6976   -2.5322   14.0208 H         1 HIE      0.308193
     62 CA     -11.7101   -1.3721   15.7876 CX        1 HIE     -0.058100
     63 HA     -12.1865   -1.5267   16.7564 H1        1 HIE      0.140818
     64 CB     -10.2057   -1.1464   15.9396 CT        1 HIE     -0.006851
     65 HB2     -9.7707   -1.1361   14.9377 HC        1 HIE      0.082039
     66 HB3    -10.0139   -0.1585   16.3709 HC        1 HIE      0.082039
     67 CG      -9.5442   -2.1926   16.7743 CC        1 HIE     -0.105188
     68 ND1     -8.1735   -2.3762   16.7577 NB        1 HIE      0.108188
     69 CE1     -7.8993   -3.3214   17.6328 CR        1 HIE     -0.062968
     70 HE1     -6.9169   -3.6935   17.8745 H5        1 HIE      0.143225
     71 NE2     -9.0283   -3.7665   18.2003 NA        1 HIE     -0.139373
     72 HE2     -9.0883   -4.4706   18.9154 H         1 HIE      0.328497
     73 CD2    -10.0859   -3.0668   17.6669 CW        1 HIE     -0.141334
     74 HD2    -11.1104   -3.2721   17.9266 H4        1 HIE      0.159911
     75 C      -12.3115   -0.1577   15.0871 C         1 HIE      0.597300
     76 O      -11.9140    0.1806   13.9759 O         1 HIE     -0.567900
     77 NNM    -13.2743    0.4866   15.7628 n         1 NME     -0.608460
     78 CNM    -13.9525    1.6678   15.2587 c         1 NME      0.162935
     79 HNM    -13.5544    0.1120   16.6530 h         1 NME      0.337110
     80 H1M    -13.7730    1.7374   14.1899 h         1 NME      0.036138
     81 H2M    -15.0232    1.5851   15.4356 h         1 NME      0.036138
     82 H3M    -13.5788    2.5717   15.7409 h         1 NME      0.036138
     83 ZN      -6.7420   -1.5455   15.5613 zn        1 ZN       0.085717
     84 HN31    -4.4144   -0.8561   16.9150 hn        1 MNS      0.242614
     85 HM23    -5.3803    5.8262   12.1988 h1        1 MNS      0.064800
     86 HM22    -6.6305    6.7991   12.9864 h1        1 MNS      0.064800
     87 HM21    -5.2197    7.5844   12.2749 h1        1 MNS      0.064800
     88 HM13    -3.1216    7.2379   15.1168 h1        1 MNS      0.068595
     89 HM12    -2.8152    6.1277   13.7764 h1        1 MNS      0.068595
     90 HM11    -3.2538    7.8110   13.4544 h1        1 MNS      0.068595
     91 H8      -6.5735    3.1992   17.7512 ha        1 MNS      0.152493
     92 H7      -7.0370    5.5812   17.9764 ha        1 MNS      0.142431
     93 H6      -6.2183    7.1913   16.2591 ha        1 MNS      0.086350
     94 H4      -4.0071    4.5297   13.0144 ha        1 MNS      0.134028
     95 H3      -3.5459    2.1570   12.7383 ha        1 MNS      0.148027
     96 H2      -4.3108    0.5306   14.4623 ha        1 MNS      0.050530
     97 C1      -5.2051    2.0188   15.6816 ca        1 MNS      0.011348
     98 C2      -4.5179    1.5846   14.5833 ca        1 MNS     -0.029573
     99 C3      -4.0871    2.5059   13.6084 ca        1 MNS     -0.190739
    100 C4      -4.3468    3.8332   13.7642 ca        1 MNS     -0.178130
    101 C4A     -5.0526    4.3216   14.8931 ca        1 MNS      0.086902
    102 C5      -5.3195    5.7160   15.0545 ca        1 MNS      0.013065
    103 C6      -6.0226    6.1342   16.1493 ca        1 MNS     -0.036688
    104 C7      -6.4842    5.2208   17.1177 ca        1 MNS     -0.151592
    105 C8      -6.2329    3.8870   16.9923 ca        1 MNS     -0.164944
    106 C8A     -5.5051    3.4025   15.8759 ca        1 MNS      0.040029
    107 N       -4.8734    6.6921   14.1141 nh        1 MNS     -0.187105
    108 CM1     -3.4454    6.9625   14.1112 c3        1 MNS     -0.102698
    109 CM2     -5.5531    6.7083   12.8312 c3        1 MNS     -0.116711
    110 S       -5.8143    0.8149   16.8457 sy        1 MNS      0.468912
    111 O1S     -7.2525    0.7416   16.5669 o         1 MNS     -0.387940
    112 O2S     -5.3926    1.2030   18.1621 o         1 MNS     -0.381706
    113 N3S     -5.2485   -0.5982   16.4075 n2        1 MNS     -0.362979
@<TRIPOS>BOND
     1    1    2 1
     2    1    4 1
     3    1    5 1
     4    1    6 1
     5    2    3 1
     6    2    7 1
     7    7    8 1
     8    7    9 1
     9    9   10 1
    10    9   11 1
    11    9   22 1
    12   11   12 1
    13   11   13 1
    14   11   14 1
    15   14   15 1
    16   14   20 1
    17   15   16 1
    18   15   17 1
    19   17   18 1
    20   17   19 1
    21   19   20 1
    22   19   83 1
    23   20   21 1
    24   22   23 1
    25   22   24 1
    26   24   25 1
    27   24   28 1
    28   25   26 1
    29   25   29 1
    30   25   30 1
    31   26   27 1
    32   26   31 1
    33   31   32 1
    34   31   33 1
    35   33   34 1
    36   33   35 1
    37   33   46 1
    38   35   36 1
    39   35   37 1
    40   35   38 1
    41   38   39 1
    42   38   44 1
    43   39   40 1
    44   39   41 1
    45   41   42 1
    46   41   43 1
    47   43   44 1
    48   43   83 1
    49   44   45 1
    50   46   47 1
    51   46   48 1
    52   48   49 1
    53   48   50 1
    54   49   51 1
    55   49   52 1
    56   49   53 1
    57   54   55 1
    58   54   57 1
    59   54   58 1
    60   54   59 1
    61   55   56 1
    62   55   60 1
    63   60   61 1
    64   60   62 1
    65   62   63 1
    66   62   64 1
    67   62   75 1
    68   64   65 1
    69   64   66 1
    70   64   67 1
    71   67   68 1
    72   67   73 1
    73   68   69 1
    74   68   83 1
    75   69   70 1
    76   69   71 1
    77   71   72 1
    78   71   73 1
    79   73   74 1
    80   75   76 1
    81   75   77 1
    82   77   78 1
    83   77   79 1
    84   78   80 1
    85   78   81 1
    86   78   82 1
    87   83  111 1
    88   83  113 1
    89   84  113 1
    90   85  109 1
    91   86  109 1
    92   87  109 1
    93   88  108 1
    94   89  108 1
    95   90  108 1
    96   91  105 1
    97   92  104 1
    98   93  103 1
    99   94  100 1
   100   95   99 1
   101   96   98 1
   102   97   98 1
   103   97  106 1
   104   97  110 1
   105   98   99 1
   106   99  100 1
   107  100  101 1
   108  101  102 1
   109  101  106 1
   110  102  103 1
   111  102  107 1
   112  103  104 1
   113  104  105 1
   114  105  106 1
   115  107  108 1
   116  107  109 1
   117  110  111 1
   118  110  112 1
   119  110  113 1
@<TRIPOS>SUBSTRUCTURE
     1 metal_large_resp        1 TEMP              0 ****  ****    0 ROOT
