@<TRIPOS>MOLECULE
metal_large_resp
  113   119     1     0     0
SMALL
USER_CHARGES


@<TRIPOS>ATOM
      1 CMA    -12.5543    1.5752   11.0873 c         1 ACE     -0.205349
      2 CAC    -11.5705    0.6763   10.3851 c         1 ACE      0.413114
      3 OAC    -11.2011    0.8539    9.2350 o         1 ACE     -0.472176
      4 H1A    -12.2565    1.7513   12.1200 h         1 ACE      0.097495
      5 H2A    -13.5325    1.0911   11.1064 h         1 ACE      0.101961
      6 H3A    -12.6336    2.5079   10.5370 h         1 ACE      0.064956
      7 N      -11.1070   -0.3749   11.1178 N         1 HID     -0.415700
      8 H      -11.4038   -0.5128   12.0775 H         1 HID      0.342680
      9 CA     -10.2390   -1.3355   10.4904 CX        1 HID      0.018800
     10 HA     -10.5954   -1.5086    9.4709 H1        1 HID      0.072951
     11 CB      -8.7864   -0.8130   10.3972 CT        1 HID     -0.066233
     12 HB2     -8.1507   -1.5158    9.8575 HC        1 HID      0.026856
     13 HB3     -8.8177    0.1093    9.8160 HC        1 HID      0.095033
     14 CG      -8.2236   -0.5774   11.7535 CC        1 HID      0.083627
     15 ND1     -8.3771    0.6111   12.4311 NA        1 HID     -0.133052
     16 HD1     -8.8280    1.4376   12.0734 H         1 HID      0.299595
     17 CE1     -7.8784    0.4763   13.6674 CR        1 HID      0.040808
     18 HE1     -7.8731    1.2440   14.4217 H5        1 HID      0.206188
     19 NE2     -7.4073   -0.7446   13.8289 NB        1 HID     -0.526130
     20 CD2     -7.6123   -1.4119   12.6374 CV        1 HID     -0.130503
     21 HD2     -7.3134   -2.4370   12.4895 H4        1 HID      0.163689
     22 C      -10.2993   -2.6431   11.2667 C         1 HID      0.597300
     23 O      -10.9150   -2.7524   12.3175 O         1 HID     -0.567900
     24 N       -9.6270   -3.6774   10.7194 N         1 GLY     -0.489989
     25 CA      -9.5697   -4.9633   11.3572 CX        1 GLY      0.045788
     26 C       -8.1455   -5.3831   11.6990 C         1 GLY      0.475076
     27 O       -7.1636   -4.7704   11.3191 O         1 GLY     -0.490634
     28 H       -9.0706   -3.5295    9.8940 H         1 GLY      0.332149
     29 HA2    -10.1682   -4.9084   12.2664 h         1 GLY      0.064598
     30 HA3    -10.0092   -5.7337   10.7171 h         1 GLY      0.063012
     31 N       -8.0929   -6.5150   12.4363 N         1 HID     -0.415700
     32 H       -8.9429   -7.0065   12.6797 H         1 HID      0.307406
     33 CA      -6.8790   -7.2673   12.6698 CX        1 HID      0.018800
     34 HA      -6.1507   -6.9821   11.9090 H1        1 HID      0.083873
     35 CB      -6.3165   -7.0096   14.0804 CT        1 HID      0.216232
     36 HB2     -7.0607   -7.3540   14.8000 HC        1 HID      0.039796
     37 HB3     -5.4229   -7.6199   14.2329 HC        1 HID      0.000215
     38 CG      -6.0120   -5.5758   14.3426 CC        1 HID     -0.162824
     39 ND1     -4.7572   -5.0243   14.2056 NA        1 HID     -0.121100
     40 HD1     -3.9211   -5.5181   13.9435 H         1 HID      0.298189
     41 CE1     -4.8264   -3.7153   14.5112 CR        1 HID      0.043838
     42 HE1     -3.9809   -3.0483   14.5047 H5        1 HID      0.185434
     43 NE2     -6.0563   -3.3894   14.8352 NB        1 HID     -0.400011
     44 CD2     -6.8063   -4.5411   14.7280 CV        1 HID     -0.082629
     45 HD2     -7.8645   -4.5488   14.9262 H4        1 HID      0.093101
     46 C       -7.2873   -8.7402   12.5729 C         1 HID      0.597300
     47 O       -8.3258   -9.0946   13.1074 O         1 HID     -0.567900
     48 NNM     -6.4594   -9.5690   11.9160 n         1 NME     -0.624003
     49 CNM     -6.8016  -10.9695   11.7095 c         1 NME      0.135670
     50 HNM     -5.6927   -9.1742   11.3994 h         1 NME      0.328433
     51 H1M     -7.3714  -11.3193   12.5657 h         1 NME      0.068412
     52 H2M     -7.4102  -11.0956   10.8132 h         1 NME      0.046024
     53 H3M     -5.8916  -11.5565   11.6154 h         1 NME      0.045464
     54 CMA    -12.8348   -4.7555   14.4985 c         1 ACE     -0.361210
     55 CAC    -12.6065   -3.6431   15.4916 c         1 ACE      0.592159
     56 OAC    -12.9588   -3.7305   16.6598 o         1 ACE     -0.546358
     57 H1A    -12.2874   -4.5990   13.5700 h         1 ACE      0.079349
     58 H2A    -13.9007   -4.8069   14.2769 h         1 ACE      0.130247
     59 H3A    -12.5492   -5.7000   14.9579 h         1 ACE      0.105813
     60 N      -11.9886   -2.5458   14.9908 N         1 HIE     -0.415700
     61 H      -11.6976   -2.5323   14.0208 H         1 HIE      0.307487
     62 CA     -11.7101   -1.3721   15.7876 CX        1 HIE     -0.058100
     63 HA     -12.1864   -1.5267   16.7564 H1        1 HIE      0.116393
     64 CB     -10.2056   -1.1464   15.9396 CT        1 HIE     -0.119671
     65 HB2     -9.7706   -1.1362   14.9377 HC        1 HIE      0.069816
     66 HB3    -10.0138   -0.1585   16.3708 HC        1 HIE      0.150158
     67 CG      -9.5443   -2.1926   16.7744 CC        1 HIE     -0.099497
     68 ND1     -8.1735   -2.3762   16.7578 NB        1 HIE     -0.081837
     69 CE1     -7.8993   -3.3215   17.6329 CR        1 HIE     -0.053908
     70 HE1     -6.9169   -3.6936   17.8746 H5        1 HIE      0.149787
     71 NE2     -9.0283   -3.7665   18.2004 NA        1 HIE     -0.167245
     72 HE2     -9.0884   -4.4706   18.9154 H         1 HIE      0.329450
     73 CD2    -10.0859   -3.0668   17.6670 CW        1 HIE     -0.092524
     74 HD2    -11.1105   -3.2721   17.9266 H4        1 HIE      0.170238
     75 C      -12.3115   -0.1578   15.0871 C         1 HIE      0.597300
     76 O      -11.9140    0.1805   13.9759 O         1 HIE     -0.567900
     77 NNM    -13.2742    0.4865   15.7628 n         1 NME     -0.588543
     78 CNM    -13.9525    1.6677   15.2587 c         1 NME      0.235276
     79 HNM    -13.5543    0.1120   16.6530 h         1 NME      0.329375
     80 H1M    -13.7730    1.7373   14.1899 h         1 NME     -0.031603
     81 H2M    -15.0232    1.5850   15.4356 h         1 NME      0.036977
     82 H3M    -13.5788    2.5717   15.7409 h         1 NME      0.018519
     83 ZN      -6.7420   -1.5457   15.5613 zn        1 ZN       1.523726
     84 C1      -5.2050    2.0189   15.6816 ca        1 MNS     -0.088605
     85 C2      -4.5178    1.5846   14.5833 ca        1 MNS     -0.005117
     86 C3      -4.0871    2.5059   13.6084 ca        1 MNS     -0.286024
     87 C4      -4.3467    3.8333   13.7641 ca        1 MNS     -0.124747
     88 C4A     -5.0526    4.3216   14.8931 ca        1 MNS      0.104010
     89 C5      -5.3194    5.7160   15.0545 ca        1 MNS      0.105258
     90 C6      -6.0226    6.1341   16.1493 ca        1 MNS     -0.044433
     91 C7      -6.4842    5.2207   17.1177 ca        1 MNS     -0.174303
     92 C8      -6.2329    3.8869   16.9922 ca        1 MNS     -0.161626
     93 C8A     -5.5050    3.4025   15.8758 ca        1 MNS     -0.044518
     94 N       -4.8735    6.6921   14.1141 nh        1 MNS     -0.321809
     95 CM1     -3.4455    6.9626   14.1112 c3        1 MNS     -0.058598
     96 CM2     -5.5531    6.7084   12.8312 c3        1 MNS     -0.076192
     97 S       -5.8143    0.8150   16.8456 sy        1 MNS      1.354140
     98 O1S     -7.2525    0.7419   16.5667 o         1 MNS     -0.751287
     99 O2S     -5.3928    1.2029   18.1621 o         1 MNS     -0.520777
    100 N3S     -5.2486   -0.5982   16.4075 n2        1 MNS     -1.823288
    101 HN31    -4.4149   -0.8563   16.9155 hn        1 MNS      0.664590
    102 HM23    -5.3802    5.8264   12.1987 h1        1 MNS      0.010376
    103 HM22    -6.6305    6.7991   12.9865 h1        1 MNS      0.058620
    104 HM21    -5.2198    7.5846   12.2750 h1        1 MNS      0.094185
    105 HM13    -3.1216    7.2378   15.1168 h1        1 MNS      0.068101
    106 HM12    -2.8152    6.1278   13.7762 h1        1 MNS      0.028669
    107 HM11    -3.2539    7.8112   13.4545 h1        1 MNS      0.072734
    108 H8      -6.5734    3.1991   17.7510 ha        1 MNS      0.169536
    109 H7      -7.0371    5.5811   17.9763 ha        1 MNS      0.143651
    110 H6      -6.2183    7.1912   16.2591 ha        1 MNS      0.097790
    111 H4      -4.0072    4.5297   13.0143 ha        1 MNS      0.189818
    112 H3      -3.5459    2.1570   12.7382 ha        1 MNS      0.145524
    113 H2      -4.3106    0.5306   14.4623 ha        1 MNS      0.174320
@<TRIPOS>BOND
     1    1    2 1
     2    1    4 1
     3    1    5 1
     4    1    6 1
     5    2    3 1
     6    2    7 1
     7    7    8 1
     8    7    9 1
     9    9   10 1
    10    9   11 1
    11    9   22 1
    12   11   12 1
    13   11   13 1
    14   11   14 1
    15   14   15 1
    16   14   20 1
    17   15   16 1
    18   15   17 1
    19   17   18 1
    20   17   19 1
    21   19   20 1
    22   19   83 1
    23   20   21 1
    24   22   23 1
    25   22   24 1
    26   24   25 1
    27   24   28 1
    28   25   26 1
    29   25   29 1
    30   25   30 1
    31   26   27 1
    32   26   31 1
    33   31   32 1
    34   31   33 1
    35   33   34 1
    36   33   35 1
    37   33   46 1
    38   35   36 1
    39   35   37 1
    40   35   38 1
    41   38   39 1
    42   38   44 1
    43   39   40 1
    44   39   41 1
    45   41   42 1
    46   41   43 1
    47   43   44 1
    48   43   83 1
    49   44   45 1
    50   46   47 1
    51   46   48 1
    52   48   49 1
    53   48   50 1
    54   49   51 1
    55   49   52 1
    56   49   53 1
    57   54   55 1
    58   54   57 1
    59   54   58 1
    60   54   59 1
    61   55   56 1
    62   55   60 1
    63   60   61 1
    64   60   62 1
    65   62   63 1
    66   62   64 1
    67   62   75 1
    68   64   65 1
    69   64   66 1
    70   64   67 1
    71   67   68 1
    72   67   73 1
    73   68   69 1
    74   68   83 1
    75   69   70 1
    76   69   71 1
    77   71   72 1
    78   71   73 1
    79   73   74 1
    80   75   76 1
    81   75   77 1
    82   77   78 1
    83   77   79 1
    84   78   80 1
    85   78   81 1
    86   78   82 1
    87   83   98 1
    88   83  100 1
    89   84   85 1
    90   84   93 1
    91   84   97 1
    92   85   86 1
    93   85  113 1
    94   86   87 1
    95   86  112 1
    96   87   88 1
    97   87  111 1
    98   88   89 1
    99   88   93 1
   100   89   90 1
   101   89   94 1
   102   90   91 1
   103   90  110 1
   104   91   92 1
   105   91  109 1
   106   92   93 1
   107   92  108 1
   108   94   95 1
   109   94   96 1
   110   95  105 1
   111   95  106 1
   112   95  107 1
   113   96  102 1
   114   96  103 1
   115   96  104 1
   116   97   98 1
   117   97   99 1
   118   97  100 1
   119  100  101 1
@<TRIPOS>SUBSTRUCTURE
     1 metal_large_resp        1 TEMP              0 ****  ****    0 ROOT
