@<TRIPOS>MOLECULE
CM1
   10     9     1     0     0
SMALL
USER_CHARGES


@<TRIPOS>ATOM
      1 N       -5.8613    0.8459   32.8944 N         1 CM1     -0.415700
      2 CA      -5.6813    0.4582   31.5019 CX        1 CM1     -0.035100
      3 C       -4.5184   -0.5306   31.3391 C         1 CM1      0.597300
      4 O       -3.3590   -0.1950   31.5079 O         1 CM1     -0.567900
      5 CB      -5.3976    1.6981   30.6673 CT        1 CM1      0.179323
      6 SG      -5.2310    1.2938   28.9001 Z1        1 CM1     -0.728065
      7 H       -6.3070    1.7343   33.0591 H         1 CM1      0.268696
      8 HA      -6.5931   -0.0192   31.1314 H1        1 CM1      0.034796
      9 HB3     -6.1903    2.4367   30.8102 H1        1 CM1     -0.120005
     10 HB2     -4.4491    2.1219   30.9965 H1        1 CM1      0.092531
@<TRIPOS>BOND
     1    1    2 1
     2    1    7 1
     3    2    3 1
     4    2    5 1
     5    2    8 1
     6    3    4 1
     7    5    6 1
     8    5    9 1
     9    5   10 1
@<TRIPOS>SUBSTRUCTURE
     1 CM1         1 TEMP              0 ****  ****    0 ROOT
