@<TRIPOS>MOLECULE
CM1
   10     9     1     0     0
SMALL
USER_CHARGES


@<TRIPOS>ATOM
      1 N       -6.1116    0.7395   32.8766 N         1 CM1     -0.415700
      2 CA      -5.7986    0.2901   31.5308 CX        1 CM1     -0.035100
      3 C       -4.6377   -0.7128   31.5413 C         1 CM1      0.597300
      4 O       -3.5200   -0.3921   31.9115 O         1 CM1     -0.567900
      5 CB      -5.4074    1.5087   30.7025 CT        1 CM1     -0.042060
      6 SG      -5.2526    1.1447   28.9260 Y1        1 CM1     -0.307250
      7 H       -6.4597    1.6786   32.9759 H         1 CM1      0.256144
      8 HA      -6.6704   -0.1901   31.0840 H1        1 CM1      0.108932
      9 HB2     -6.1430    2.3034   30.8491 H1        1 CM1      0.068834
     10 HB3     -4.4354    1.8573   31.0546 H1        1 CM1      0.068834
@<TRIPOS>BOND
     1    1    2 1
     2    1    7 1
     3    2    3 1
     4    2    5 1
     5    2    8 1
     6    3    4 1
     7    5    6 1
     8    5    9 1
     9    5   10 1
@<TRIPOS>SUBSTRUCTURE
     1 CM1         1 TEMP              0 ****  ****    0 ROOT
