@<TRIPOS>MOLECULE
HM1
   72    76     1     0     0
SMALL
USER_CHARGES


@<TRIPOS>ATOM
      1 CAA    -10.3254    1.6652   33.1678 c3        1 HM1     -0.099331
      2 CAB     -6.7730    5.2115   24.6733 ce        1 HM1     -0.083899
      3 CAC     -6.0211   -2.6327   24.1330 ce        1 HM1     -0.123513
      4 CAD     -9.2690   -3.4462   31.3753 c3        1 HM1     -0.135394
      5 NA      -8.6435    1.6981   29.7887 Z2        1 HM1     -1.118188
      6 CBA    -11.8616    1.7775   33.1002 c3        1 HM1     -0.020911
      7 CBB     -6.1495    6.3869   24.6746 c2        1 HM1     -0.416826
      8 CBC     -5.5496   -3.7446   24.6893 c2        1 HM1     -0.330326
      9 CBD     -8.0935   -3.7682   32.3126 c3        1 HM1     -0.029709
     10 NB      -7.7558    2.7546   27.2675 Z3        1 HM1     -0.938542
     11 CGA    -12.4974    2.5874   34.2742 c         1 HM1      0.635637
     12 CGD     -8.4812   -4.9865   33.1921 c         1 HM1      0.612720
     13 ND      -8.1452   -0.9081   28.8506 Z4        1 HM1     -1.907202
     14 CHA     -9.1310   -0.3457   31.0154 cf        1 HM1     -0.820579
     15 CHB     -8.6552    4.0505   29.1393 ce        1 HM1     -0.375499
     16 CHC     -6.6305    2.1732   25.1796 ce        1 HM1     -0.297921
     17 CHD     -7.3560   -2.2458   26.9556 ce        1 HM1     -0.442065
     18 CMA     -9.9328    4.5072   31.9309 c3        1 HM1     -0.112711
     19 CMB     -8.1509    6.4643   27.2662 c3        1 HM1     -0.199259
     20 CMC     -5.5067    0.2548   23.0131 c3        1 HM1     -0.242540
     21 CMD     -8.2577   -4.6435   28.6048 c3        1 HM1     -0.273500
     22 C1A     -9.1211    1.0306   30.8823 cc        1 HM1      0.711054
     23 C1B     -8.1153    3.9242   27.8513 cd        1 HM1      0.313809
     24 C1C     -6.5998    0.7966   25.3153 cd        1 HM1      0.302571
     25 C1D     -7.9217   -2.0988   28.1941 cc        1 HM1      0.746267
     26 O1A    -13.6651    2.2742   34.5720 o         1 HM1     -0.693047
     27 O1D     -7.7620   -6.0020   33.0699 o         1 HM1     -0.697438
     28 C2A     -9.6555    1.9689   31.8666 cc        1 HM1     -0.199105
     29 C2B     -7.8205    5.0352   26.9860 cd        1 HM1      0.038626
     30 C2C     -6.1165   -0.1179   24.3249 cd        1 HM1     -0.004557
     31 C2D     -8.3546   -3.2105   29.0119 cc        1 HM1      0.014318
     32 O2A    -11.7796    3.5017   34.7482 o         1 HM1     -0.699147
     33 O2D     -9.5125   -4.8252   33.8777 o         1 HM1     -0.679941
     34 C3A     -9.5076    3.2063   31.3298 cd        1 HM1      0.030637
     35 C3B     -7.2259    4.5043   25.8709 cc        1 HM1     -0.054659
     36 C3C     -6.3203   -1.3765   24.8230 cc        1 HM1     -0.021692
     37 C3D     -8.8174   -2.6921   30.1761 cd        1 HM1     -0.316470
     38 C4A     -8.8998    3.0331   30.0233 cd        1 HM1      0.428428
     39 C4B     -7.1945    3.0781   26.0625 cc        1 HM1      0.259683
     40 C4C     -6.9254   -1.2094   26.1229 cc        1 HM1      0.328906
     41 C4D     -8.6985   -1.2441   30.0514 cd        1 HM1      1.230884
     42 NC      -7.0790    0.1073   26.4025 Z5        1 HM1     -0.846972
     43 HAA1   -10.0085    2.4066   33.9066 hc        1 HM1      0.059021
     44 HAA2   -10.0266    0.6851   33.5431 hc        1 HM1      0.054827
     45 HAB     -6.9913    4.7418   23.7167 ha        1 HM1      0.126715
     46 HAC     -6.2142   -2.6404   23.0623 ha        1 HM1      0.120413
     47 HAD1    -9.7187   -4.3877   31.0540 hc        1 HM1      0.099728
     48 HAD2   -10.0438   -2.9207   31.9321 hc        1 HM1      0.041449
     49 HBA1   -12.3387    0.8005   33.0344 hc        1 HM1     -0.019905
     50 HBA2   -12.1470    2.3279   32.1983 hc        1 HM1      0.008620
     51 HBB1    -5.8952    6.8895   23.7500 ha        1 HM1      0.144091
     52 HBB2    -5.8598    6.8713   25.5993 ha        1 HM1      0.173963
     53 HBC1    -5.3944   -4.6353   24.0940 ha        1 HM1      0.131110
     54 HBC2    -5.3025   -3.7917   25.7422 ha        1 HM1      0.134349
     55 HBD1    -7.8648   -2.9028   32.9417 hc        1 HM1     -0.008822
     56 HBD2    -7.2032   -4.0117   31.7274 hc        1 HM1     -0.008645
     57 HHA     -9.5485   -0.7616   31.9214 ha        1 HM1      0.277176
     58 HHB     -8.9118    5.0493   29.4662 ha        1 HM1      0.130436
     59 HHC     -6.1804    2.5859   24.2870 ha        1 HM1      0.115225
     60 HHD     -7.2496   -3.2534   26.5799 ha        1 HM1      0.148986
     61 HMA1   -10.3795    4.3541   32.9165 hc        1 HM1      0.072342
     62 HMA2   -10.6810    5.0041   31.3057 hc        1 HM1      0.040123
     63 HMA3    -9.0842    5.1918   32.0286 hc        1 HM1      0.013325
     64 HMB1    -9.0347    6.5485   27.8997 hc        1 HM1      0.074371
     65 HMB2    -8.3428    6.9994   26.3343 hc        1 HM1      0.063663
     66 HMB3    -7.3268    6.9694   27.7767 hc        1 HM1      0.052327
     67 HMC1    -4.8232   -0.5234   22.6711 hc        1 HM1      0.074962
     68 HMC2    -4.9395    1.1834   23.0961 hc        1 HM1      0.075388
     69 HMC3    -6.2715    0.3958   22.2431 hc        1 HM1      0.072709
     70 HMD1    -8.6242   -5.2935   29.3968 hc        1 HM1      0.128669
     71 HMD2    -7.2216   -4.9272   28.4002 hc        1 HM1      0.068876
     72 HMD3    -8.8350   -4.8397   27.6958 hc        1 HM1      0.061907
@<TRIPOS>BOND
     1    1    6 1
     2    1   28 1
     3    1   43 1
     4    1   44 1
     5    2    7 1
     6    2   35 1
     7    2   45 1
     8    3    8 1
     9    3   36 1
    10    3   46 1
    11    4    9 1
    12    4   37 1
    13    4   47 1
    14    4   48 1
    15    5   22 1
    16    5   38 1
    17    6   11 1
    18    6   49 1
    19    6   50 1
    20    7   51 1
    21    7   52 1
    22    8   53 1
    23    8   54 1
    24    9   12 1
    25    9   55 1
    26    9   56 1
    27   10   23 1
    28   10   39 1
    29   11   26 1
    30   11   32 1
    31   12   27 1
    32   12   33 1
    33   13   25 1
    34   13   41 1
    35   14   22 1
    36   14   41 1
    37   14   57 1
    38   15   23 1
    39   15   38 1
    40   15   58 1
    41   16   24 1
    42   16   39 1
    43   16   59 1
    44   17   25 1
    45   17   40 1
    46   17   60 1
    47   18   34 1
    48   18   61 1
    49   18   62 1
    50   18   63 1
    51   19   29 1
    52   19   64 1
    53   19   65 1
    54   19   66 1
    55   20   30 1
    56   20   67 1
    57   20   68 1
    58   20   69 1
    59   21   31 1
    60   21   70 1
    61   21   71 1
    62   21   72 1
    63   22   28 1
    64   23   29 1
    65   24   30 1
    66   24   42 1
    67   25   31 1
    68   28   34 1
    69   29   35 1
    70   30   36 1
    71   31   37 1
    72   34   38 1
    73   35   39 1
    74   36   40 1
    75   37   41 1
    76   40   42 1
@<TRIPOS>SUBSTRUCTURE
     1 HM1         1 TEMP              0 ****  ****    0 ROOT
