@<TRIPOS>MOLECULE
HM1
   72    76     1     0     0
SMALL
USER_CHARGES


@<TRIPOS>ATOM
      1 CAA    -10.2795    1.6579   33.1671 c3        1 HM1     -0.057121
      2 CAB     -6.8422    5.2186   24.6225 ce        1 HM1     -0.092242
      3 CAC     -5.9383   -2.5762   24.1562 ce        1 HM1     -0.114296
      4 CAD     -9.1295   -3.4504   31.4232 c3        1 HM1     -0.023506
      5 NA      -8.6745    1.7278   29.7599 Y2        1 HM1     -0.065018
      6 CBA    -11.7952    1.9108   33.2296 c3        1 HM1     -0.038059
      7 CBB     -6.3197    6.4425   24.5545 c2        1 HM1     -0.343127
      8 CBC     -5.2389   -3.5370   24.7520 c2        1 HM1     -0.296269
      9 CBD     -7.9507   -4.1257   32.1484 c3        1 HM1      0.013089
     10 NB      -7.7842    2.7932   27.2478 Y3        1 HM1     -0.127778
     11 CGA    -12.2070    3.1946   34.0192 c         1 HM1      0.649293
     12 CGD     -8.3975   -5.4400   32.8428 c         1 HM1      0.613567
     13 ND      -8.1592   -0.8782   28.8466 Y4        1 HM1     -0.092271
     14 CHA     -9.1860   -0.3106   30.9888 ce        1 HM1     -0.095209
     15 CHB     -8.5873    4.0926   29.1586 ce        1 HM1     -0.076279
     16 CHC     -6.8963    2.1934   25.0605 cf        1 HM1     -0.107221
     17 CHD     -7.2338   -2.2074   27.0087 ce        1 HM1     -0.074559
     18 CMA     -9.8526    4.5758   31.8935 c3        1 HM1     -0.052989
     19 CMB     -8.0672    6.5068   27.3528 c3        1 HM1     -0.091331
     20 CMC     -5.8730    0.3034   22.8672 c3        1 HM1     -0.100307
     21 CMD     -7.8842   -4.6158   28.8120 c3        1 HM1     -0.103250
     22 C1A     -9.1679    1.0655   30.8505 cc        1 HM1     -0.023543
     23 C1B     -8.0747    3.9687   27.8629 cc        1 HM1     -0.011408
     24 C1C     -6.8487    0.8210   25.2198 cd        1 HM1     -0.024899
     25 C1D     -7.7997   -2.0661   28.2513 cc        1 HM1     -0.085505
     26 O1A    -13.3959    3.5344   33.8665 o         1 HM1     -0.702913
     27 O1D     -7.6085   -6.4057   32.7437 o         1 HM1     -0.710554
     28 C2A     -9.6656    2.0090   31.8495 cc        1 HM1     -0.000479
     29 C2B     -7.8000    5.0810   26.9958 cc        1 HM1      0.034994
     30 C2C     -6.3724   -0.0909   24.2210 cd        1 HM1     -0.004537
     31 C2D     -8.1230   -3.1753   29.1189 cc        1 HM1      0.043644
     32 O2A    -11.3199    3.7397   34.7193 o         1 HM1     -0.691432
     33 O2D     -9.5120   -5.3835   33.4068 o         1 HM1     -0.694234
     34 C3A     -9.4885    3.2469   31.3195 cd        1 HM1      0.011302
     35 C3B     -7.3090    4.5469   25.8308 cc        1 HM1     -0.024436
     36 C3C     -6.4041   -1.3373   24.7841 cc        1 HM1     -0.003298
     37 C3D     -8.6811   -2.6574   30.2423 cd        1 HM1     -0.038906
     38 C4A     -8.8803    3.0649   30.0167 cd        1 HM1     -0.047475
     39 C4B     -7.3208    3.1155   26.0037 cc        1 HM1     -0.034956
     40 C4C     -6.9411   -1.1733   26.1170 cd        1 HM1     -0.014957
     41 C4D     -8.7010   -1.2132   30.0553 cd        1 HM1     -0.025308
     42 NC      -7.1910    0.1387   26.3613 Y5        1 HM1     -0.056100
     43 HAA1    -9.8489    2.2948   33.9467 hc        1 HM1      0.040284
     44 HAA2   -10.0401    0.6250   33.4246 hc        1 HM1      0.040284
     45 HAB     -6.9199    4.6467   23.7014 ha        1 HM1      0.095696
     46 HAC     -6.1763   -2.6955   23.1020 ha        1 HM1      0.097577
     47 HAD1    -9.8074   -4.2350   31.0785 hc        1 HM1      0.029704
     48 HAD2    -9.7096   -2.8553   32.1254 hc        1 HM1      0.029704
     49 HBA1   -12.2991    1.0745   33.7203 hc        1 HM1     -0.007446
     50 HBA2   -12.2280    1.9865   32.2303 hc        1 HM1     -0.007446
     51 HBB1    -6.0144    6.8604   23.6037 ha        1 HM1      0.129745
     52 HBB2    -6.1585    7.0435   25.4404 ha        1 HM1      0.129745
     53 HBC1    -4.9287   -4.4184   24.2056 ha        1 HM1      0.129564
     54 HBC2    -4.9397   -3.4653   25.7898 ha        1 HM1      0.129564
     55 HBD1    -7.5314   -3.4474   32.8964 hc        1 HM1     -0.008023
     56 HBD2    -7.1496   -4.3634   31.4448 hc        1 HM1     -0.008023
     57 HHA     -9.5975   -0.7185   31.9014 ha        1 HM1      0.136616
     58 HHB     -8.7910    5.0930   29.5169 ha        1 HM1      0.091417
     59 HHC     -6.5526    2.5759   24.1082 ha        1 HM1      0.131288
     60 HHD     -7.0247   -3.2165   26.6840 ha        1 HM1      0.094905
     61 HMA1   -10.1901    4.4844   32.9261 hc        1 HM1      0.032694
     62 HMA2   -10.6664    5.0327   31.3230 hc        1 HM1      0.032694
     63 HMA3    -9.0009    5.2612   31.8516 hc        1 HM1      0.032694
     64 HMB1    -9.0292    6.6047   27.8573 hc        1 HM1      0.039405
     65 HMB2    -8.0906    7.1416   26.4690 hc        1 HM1      0.039405
     66 HMB3    -7.3051    6.9001   28.0309 hc        1 HM1      0.039405
     67 HMC1    -5.3779   -0.5316   22.3703 hc        1 HM1      0.039657
     68 HMC2    -5.1499    1.1189   22.9455 hc        1 HM1      0.039657
     69 HMC3    -6.6833    0.6547   22.2214 hc        1 HM1      0.039657
     70 HMD1    -8.3221   -5.2551   29.5773 hc        1 HM1      0.047825
     71 HMD2    -6.8153   -4.8413   28.7805 hc        1 HM1      0.047825
     72 HMD3    -8.3075   -4.8911   27.8430 hc        1 HM1      0.047825
@<TRIPOS>BOND
     1    1    6 1
     2    1   28 1
     3    1   43 1
     4    1   44 1
     5    2    7 1
     6    2   35 1
     7    2   45 1
     8    3    8 1
     9    3   36 1
    10    3   46 1
    11    4    9 1
    12    4   37 1
    13    4   47 1
    14    4   48 1
    15    5   22 1
    16    5   38 1
    17    6   11 1
    18    6   49 1
    19    6   50 1
    20    7   51 1
    21    7   52 1
    22    8   53 1
    23    8   54 1
    24    9   12 1
    25    9   55 1
    26    9   56 1
    27   10   23 1
    28   10   39 1
    29   11   26 1
    30   11   32 1
    31   12   27 1
    32   12   33 1
    33   13   25 1
    34   13   41 1
    35   14   22 1
    36   14   41 1
    37   14   57 1
    38   15   23 1
    39   15   38 1
    40   15   58 1
    41   16   24 1
    42   16   39 1
    43   16   59 1
    44   17   25 1
    45   17   40 1
    46   17   60 1
    47   18   34 1
    48   18   61 1
    49   18   62 1
    50   18   63 1
    51   19   29 1
    52   19   64 1
    53   19   65 1
    54   19   66 1
    55   20   30 1
    56   20   67 1
    57   20   68 1
    58   20   69 1
    59   21   31 1
    60   21   70 1
    61   21   71 1
    62   21   72 1
    63   22   28 1
    64   23   29 1
    65   24   30 1
    66   24   42 1
    67   25   31 1
    68   28   34 1
    69   29   35 1
    70   30   36 1
    71   31   37 1
    72   34   38 1
    73   35   39 1
    74   36   40 1
    75   37   41 1
    76   40   42 1
@<TRIPOS>SUBSTRUCTURE
     1 HM1         1 TEMP              0 ****  ****    0 ROOT
