@<TRIPOS>MOLECULE
P450_metal_site
   83    90     1     0     0
SMALL
USER_CHARGES


@<TRIPOS>ATOM
      1 N       -6.1116    0.7395   32.8766 N         1 CYM     -0.415700
      2 CA      -5.7986    0.2901   31.5308 CX        1 CYM     -0.035100
      3 C       -4.6377   -0.7128   31.5413 C         1 CYM      0.597300
      4 O       -3.5200   -0.3921   31.9115 O         1 CYM     -0.567900
      5 CB      -5.4074    1.5087   30.7025 CT        1 CYM     -0.042060
      6 SG      -5.2526    1.1447   28.9260 Y1        1 CYM     -0.307250
      7 H       -6.4597    1.6786   32.9759 H         1 CYM      0.256144
      8 HA      -6.6704   -0.1901   31.0840 H1        1 CYM      0.108932
      9 HB2     -6.1430    2.3034   30.8491 H1        1 CYM      0.068834
     10 HB3     -4.4354    1.8573   31.0546 H1        1 CYM      0.068834
     11 CAA    -10.2795    1.6579   33.1671 c3        1 HEM     -0.057121
     12 CAB     -6.8422    5.2186   24.6225 ce        1 HEM     -0.092242
     13 CAC     -5.9383   -2.5762   24.1562 ce        1 HEM     -0.114296
     14 CAD     -9.1295   -3.4504   31.4232 c3        1 HEM     -0.023506
     15 NA      -8.6745    1.7278   29.7599 Y2        1 HEM     -0.065018
     16 CBA    -11.7952    1.9108   33.2296 c3        1 HEM     -0.038059
     17 CBB     -6.3197    6.4425   24.5545 c2        1 HEM     -0.343127
     18 CBC     -5.2389   -3.5370   24.7520 c2        1 HEM     -0.296269
     19 CBD     -7.9507   -4.1257   32.1484 c3        1 HEM      0.013089
     20 NB      -7.7842    2.7932   27.2478 Y3        1 HEM     -0.127778
     21 CGA    -12.2070    3.1946   34.0192 c         1 HEM      0.649293
     22 CGD     -8.3975   -5.4400   32.8428 c         1 HEM      0.613567
     23 ND      -8.1592   -0.8782   28.8466 Y4        1 HEM     -0.092271
     24 CHA     -9.1860   -0.3106   30.9888 ce        1 HEM     -0.095209
     25 CHB     -8.5873    4.0926   29.1586 ce        1 HEM     -0.076279
     26 CHC     -6.8963    2.1934   25.0605 cf        1 HEM     -0.107221
     27 CHD     -7.2338   -2.2074   27.0087 ce        1 HEM     -0.074559
     28 CMA     -9.8526    4.5758   31.8935 c3        1 HEM     -0.052989
     29 CMB     -8.0672    6.5068   27.3528 c3        1 HEM     -0.091331
     30 CMC     -5.8730    0.3034   22.8672 c3        1 HEM     -0.100307
     31 CMD     -7.8842   -4.6158   28.8120 c3        1 HEM     -0.103250
     32 C1A     -9.1679    1.0655   30.8505 cc        1 HEM     -0.023543
     33 C1B     -8.0747    3.9687   27.8629 cc        1 HEM     -0.011408
     34 C1C     -6.8487    0.8210   25.2198 cd        1 HEM     -0.024899
     35 C1D     -7.7997   -2.0661   28.2513 cc        1 HEM     -0.085505
     36 O1A    -13.3959    3.5344   33.8665 o         1 HEM     -0.702913
     37 O1D     -7.6085   -6.4057   32.7437 o         1 HEM     -0.710554
     38 C2A     -9.6656    2.0090   31.8495 cc        1 HEM     -0.000479
     39 C2B     -7.8000    5.0810   26.9958 cc        1 HEM      0.034994
     40 C2C     -6.3724   -0.0909   24.2210 cd        1 HEM     -0.004537
     41 C2D     -8.1230   -3.1753   29.1189 cc        1 HEM      0.043644
     42 O2A    -11.3199    3.7397   34.7193 o         1 HEM     -0.691432
     43 O2D     -9.5120   -5.3835   33.4068 o         1 HEM     -0.694234
     44 C3A     -9.4885    3.2469   31.3195 cd        1 HEM      0.011302
     45 C3B     -7.3090    4.5469   25.8308 cc        1 HEM     -0.024436
     46 C3C     -6.4041   -1.3373   24.7841 cc        1 HEM     -0.003298
     47 C3D     -8.6811   -2.6574   30.2423 cd        1 HEM     -0.038906
     48 C4A     -8.8803    3.0649   30.0167 cd        1 HEM     -0.047475
     49 C4B     -7.3208    3.1155   26.0037 cc        1 HEM     -0.034956
     50 C4C     -6.9411   -1.1733   26.1170 cd        1 HEM     -0.014957
     51 C4D     -8.7010   -1.2132   30.0553 cd        1 HEM     -0.025308
     52 NC      -7.1910    0.1387   26.3613 Y5        1 HEM     -0.056100
     53 HAA1    -9.8489    2.2948   33.9467 hc        1 HEM      0.040284
     54 HAA2   -10.0401    0.6250   33.4246 hc        1 HEM      0.040284
     55 HAB     -6.9199    4.6467   23.7014 ha        1 HEM      0.095696
     56 HAC     -6.1763   -2.6955   23.1020 ha        1 HEM      0.097577
     57 HAD1    -9.8074   -4.2350   31.0785 hc        1 HEM      0.029704
     58 HAD2    -9.7096   -2.8553   32.1254 hc        1 HEM      0.029704
     59 HBA1   -12.2991    1.0745   33.7203 hc        1 HEM     -0.007446
     60 HBA2   -12.2280    1.9865   32.2303 hc        1 HEM     -0.007446
     61 HBB1    -6.0144    6.8604   23.6037 ha        1 HEM      0.129745
     62 HBB2    -6.1585    7.0435   25.4404 ha        1 HEM      0.129745
     63 HBC1    -4.9287   -4.4184   24.2056 ha        1 HEM      0.129564
     64 HBC2    -4.9397   -3.4653   25.7898 ha        1 HEM      0.129564
     65 HBD1    -7.5314   -3.4474   32.8964 hc        1 HEM     -0.008023
     66 HBD2    -7.1496   -4.3634   31.4448 hc        1 HEM     -0.008023
     67 HHA     -9.5975   -0.7185   31.9014 ha        1 HEM      0.136616
     68 HHB     -8.7910    5.0930   29.5169 ha        1 HEM      0.091417
     69 HHC     -6.5526    2.5759   24.1082 ha        1 HEM      0.131288
     70 HHD     -7.0247   -3.2165   26.6840 ha        1 HEM      0.094905
     71 HMA1   -10.1901    4.4844   32.9261 hc        1 HEM      0.032694
     72 HMA2   -10.6664    5.0327   31.3230 hc        1 HEM      0.032694
     73 HMA3    -9.0009    5.2612   31.8516 hc        1 HEM      0.032694
     74 HMB1    -9.0292    6.6047   27.8573 hc        1 HEM      0.039405
     75 HMB2    -8.0906    7.1416   26.4690 hc        1 HEM      0.039405
     76 HMB3    -7.3051    6.9001   28.0309 hc        1 HEM      0.039405
     77 HMC1    -5.3779   -0.5316   22.3703 hc        1 HEM      0.039657
     78 HMC2    -5.1499    1.1189   22.9455 hc        1 HEM      0.039657
     79 HMC3    -6.6833    0.6547   22.2214 hc        1 HEM      0.039657
     80 HMD1    -8.3221   -5.2551   29.5773 hc        1 HEM      0.047825
     81 HMD2    -6.8153   -4.8413   28.7805 hc        1 HEM      0.047825
     82 HMD3    -8.3075   -4.8911   27.8430 hc        1 HEM      0.047825
     83 FE      -7.4553    0.9760   28.2597 M1        1 FE       0.293950
@<TRIPOS>BOND
     1    1    2 1
     2    1    7 1
     3    2    3 1
     4    2    5 1
     5    2    8 1
     6    3    4 1
     7    5    6 1
     8    5    9 1
     9    5   10 1
    10    6   83 1
    11   11   16 1
    12   11   38 1
    13   11   53 1
    14   11   54 1
    15   12   17 1
    16   12   45 1
    17   12   55 1
    18   13   18 1
    19   13   46 1
    20   13   56 1
    21   14   19 1
    22   14   47 1
    23   14   57 1
    24   14   58 1
    25   15   32 1
    26   15   48 1
    27   15   83 1
    28   16   21 1
    29   16   59 1
    30   16   60 1
    31   17   61 1
    32   17   62 1
    33   18   63 1
    34   18   64 1
    35   19   22 1
    36   19   65 1
    37   19   66 1
    38   20   33 1
    39   20   49 1
    40   20   83 1
    41   21   36 1
    42   21   42 1
    43   22   37 1
    44   22   43 1
    45   23   35 1
    46   23   51 1
    47   23   83 1
    48   24   32 1
    49   24   51 1
    50   24   67 1
    51   25   33 1
    52   25   48 1
    53   25   68 1
    54   26   34 1
    55   26   49 1
    56   26   69 1
    57   27   35 1
    58   27   50 1
    59   27   70 1
    60   28   44 1
    61   28   71 1
    62   28   72 1
    63   28   73 1
    64   29   39 1
    65   29   74 1
    66   29   75 1
    67   29   76 1
    68   30   40 1
    69   30   77 1
    70   30   78 1
    71   30   79 1
    72   31   41 1
    73   31   80 1
    74   31   81 1
    75   31   82 1
    76   32   38 1
    77   33   39 1
    78   34   40 1
    79   34   52 1
    80   35   41 1
    81   38   44 1
    82   39   45 1
    83   40   46 1
    84   41   47 1
    85   44   48 1
    86   45   49 1
    87   46   50 1
    88   47   51 1
    89   50   52 1
    90   52   83 1
@<TRIPOS>SUBSTRUCTURE
     1 P450_metal_site        1 TEMP              0 ****  ****    0 ROOT
