@<TRIPOS>MOLECULE
P450_metal_site
   83    90     1     0     0
SMALL
USER_CHARGES


@<TRIPOS>ATOM
      1 N       -5.8613    0.8459   32.8944 N         1 CYM     -0.415700
      2 CA      -5.6813    0.4582   31.5019 CX        1 CYM     -0.035100
      3 C       -4.5184   -0.5306   31.3391 C         1 CYM      0.597300
      4 O       -3.3590   -0.1950   31.5079 O         1 CYM     -0.567900
      5 CB      -5.3976    1.6981   30.6673 CT        1 CYM      0.179323
      6 SG      -5.2310    1.2938   28.9001 Z1        1 CYM     -0.728065
      7 H       -6.3070    1.7343   33.0591 H         1 CYM      0.268696
      8 HA      -6.5931   -0.0192   31.1314 H1        1 CYM      0.034796
      9 HB3     -6.1903    2.4367   30.8102 H1        1 CYM     -0.120005
     10 HB2     -4.4491    2.1219   30.9965 H1        1 CYM      0.092531
     11 CAA    -10.3254    1.6652   33.1678 c3        1 HEM     -0.099331
     12 CAB     -6.7730    5.2115   24.6733 ce        1 HEM     -0.083899
     13 CAC     -6.0211   -2.6327   24.1330 ce        1 HEM     -0.123513
     14 CAD     -9.2690   -3.4462   31.3753 c3        1 HEM     -0.135394
     15 NA      -8.6435    1.6981   29.7887 Z2        1 HEM     -1.118188
     16 CBA    -11.8616    1.7775   33.1002 c3        1 HEM     -0.020911
     17 CBB     -6.1495    6.3869   24.6746 c2        1 HEM     -0.416826
     18 CBC     -5.5496   -3.7446   24.6893 c2        1 HEM     -0.330326
     19 CBD     -8.0935   -3.7682   32.3126 c3        1 HEM     -0.029709
     20 NB      -7.7558    2.7546   27.2675 Z3        1 HEM     -0.938542
     21 CGA    -12.4974    2.5874   34.2742 c         1 HEM      0.635637
     22 CGD     -8.4812   -4.9865   33.1921 c         1 HEM      0.612720
     23 ND      -8.1452   -0.9081   28.8506 Z4        1 HEM     -1.907202
     24 CHA     -9.1310   -0.3457   31.0154 cf        1 HEM     -0.820579
     25 CHB     -8.6552    4.0505   29.1393 ce        1 HEM     -0.375499
     26 CHC     -6.6305    2.1732   25.1796 ce        1 HEM     -0.297921
     27 CHD     -7.3560   -2.2458   26.9556 ce        1 HEM     -0.442065
     28 CMA     -9.9328    4.5072   31.9309 c3        1 HEM     -0.112711
     29 CMB     -8.1509    6.4643   27.2662 c3        1 HEM     -0.199259
     30 CMC     -5.5067    0.2548   23.0131 c3        1 HEM     -0.242540
     31 CMD     -8.2577   -4.6435   28.6048 c3        1 HEM     -0.273500
     32 C1A     -9.1211    1.0306   30.8823 cc        1 HEM      0.711054
     33 C1B     -8.1153    3.9242   27.8513 cd        1 HEM      0.313809
     34 C1C     -6.5998    0.7966   25.3153 cd        1 HEM      0.302571
     35 C1D     -7.9217   -2.0988   28.1941 cc        1 HEM      0.746267
     36 O1A    -13.6651    2.2742   34.5720 o         1 HEM     -0.693047
     37 O1D     -7.7620   -6.0020   33.0699 o         1 HEM     -0.697438
     38 C2A     -9.6555    1.9689   31.8666 cc        1 HEM     -0.199105
     39 C2B     -7.8205    5.0352   26.9860 cd        1 HEM      0.038626
     40 C2C     -6.1165   -0.1179   24.3249 cd        1 HEM     -0.004557
     41 C2D     -8.3546   -3.2105   29.0119 cc        1 HEM      0.014318
     42 O2A    -11.7796    3.5017   34.7482 o         1 HEM     -0.699147
     43 O2D     -9.5125   -4.8252   33.8777 o         1 HEM     -0.679941
     44 C3A     -9.5076    3.2063   31.3298 cd        1 HEM      0.030637
     45 C3B     -7.2259    4.5043   25.8709 cc        1 HEM     -0.054659
     46 C3C     -6.3203   -1.3765   24.8230 cc        1 HEM     -0.021692
     47 C3D     -8.8174   -2.6921   30.1761 cd        1 HEM     -0.316470
     48 C4A     -8.8998    3.0331   30.0233 cd        1 HEM      0.428428
     49 C4B     -7.1945    3.0781   26.0625 cc        1 HEM      0.259683
     50 C4C     -6.9254   -1.2094   26.1229 cc        1 HEM      0.328906
     51 C4D     -8.6985   -1.2441   30.0514 cd        1 HEM      1.230884
     52 NC      -7.0790    0.1073   26.4025 Z5        1 HEM     -0.846972
     53 HAA1   -10.0085    2.4066   33.9066 hc        1 HEM      0.059021
     54 HAA2   -10.0266    0.6851   33.5431 hc        1 HEM      0.054827
     55 HAB     -6.9913    4.7418   23.7167 ha        1 HEM      0.126715
     56 HAC     -6.2142   -2.6404   23.0623 ha        1 HEM      0.120413
     57 HAD1    -9.7187   -4.3877   31.0540 hc        1 HEM      0.099728
     58 HAD2   -10.0438   -2.9207   31.9321 hc        1 HEM      0.041449
     59 HBA1   -12.3387    0.8005   33.0344 hc        1 HEM     -0.019905
     60 HBA2   -12.1470    2.3279   32.1983 hc        1 HEM      0.008620
     61 HBB1    -5.8952    6.8895   23.7500 ha        1 HEM      0.144091
     62 HBB2    -5.8598    6.8713   25.5993 ha        1 HEM      0.173963
     63 HBC1    -5.3944   -4.6353   24.0940 ha        1 HEM      0.131110
     64 HBC2    -5.3025   -3.7917   25.7422 ha        1 HEM      0.134349
     65 HBD1    -7.8648   -2.9028   32.9417 hc        1 HEM     -0.008822
     66 HBD2    -7.2032   -4.0117   31.7274 hc        1 HEM     -0.008645
     67 HHA     -9.5485   -0.7616   31.9214 ha        1 HEM      0.277176
     68 HHB     -8.9118    5.0493   29.4662 ha        1 HEM      0.130436
     69 HHC     -6.1804    2.5859   24.2870 ha        1 HEM      0.115225
     70 HHD     -7.2496   -3.2534   26.5799 ha        1 HEM      0.148986
     71 HMA1   -10.3795    4.3541   32.9165 hc        1 HEM      0.072342
     72 HMA2   -10.6810    5.0041   31.3057 hc        1 HEM      0.040123
     73 HMA3    -9.0842    5.1918   32.0286 hc        1 HEM      0.013325
     74 HMB1    -9.0347    6.5485   27.8997 hc        1 HEM      0.074371
     75 HMB2    -8.3428    6.9994   26.3343 hc        1 HEM      0.063663
     76 HMB3    -7.3268    6.9694   27.7767 hc        1 HEM      0.052327
     77 HMC1    -4.8232   -0.5234   22.6711 hc        1 HEM      0.074962
     78 HMC2    -4.9395    1.1834   23.0961 hc        1 HEM      0.075388
     79 HMC3    -6.2715    0.3958   22.2431 hc        1 HEM      0.072709
     80 HMD1    -8.6242   -5.2935   29.3968 hc        1 HEM      0.128669
     81 HMD2    -7.2216   -4.9272   28.4002 hc        1 HEM      0.068876
     82 HMD3    -8.8350   -4.8397   27.6958 hc        1 HEM      0.061907
     83 FE      -7.4162    0.9511   28.2903 M1        1 FE       2.694124
@<TRIPOS>BOND
     1    1    2 1
     2    1    7 1
     3    2    3 1
     4    2    5 1
     5    2    8 1
     6    3    4 1
     7    5    6 1
     8    5    9 1
     9    5   10 1
    10    6   83 1
    11   11   16 1
    12   11   38 1
    13   11   53 1
    14   11   54 1
    15   12   17 1
    16   12   45 1
    17   12   55 1
    18   13   18 1
    19   13   46 1
    20   13   56 1
    21   14   19 1
    22   14   47 1
    23   14   57 1
    24   14   58 1
    25   15   32 1
    26   15   48 1
    27   15   83 1
    28   16   21 1
    29   16   59 1
    30   16   60 1
    31   17   61 1
    32   17   62 1
    33   18   63 1
    34   18   64 1
    35   19   22 1
    36   19   65 1
    37   19   66 1
    38   20   33 1
    39   20   49 1
    40   20   83 1
    41   21   36 1
    42   21   42 1
    43   22   37 1
    44   22   43 1
    45   23   35 1
    46   23   51 1
    47   23   83 1
    48   24   32 1
    49   24   51 1
    50   24   67 1
    51   25   33 1
    52   25   48 1
    53   25   68 1
    54   26   34 1
    55   26   49 1
    56   26   69 1
    57   27   35 1
    58   27   50 1
    59   27   70 1
    60   28   44 1
    61   28   71 1
    62   28   72 1
    63   28   73 1
    64   29   39 1
    65   29   74 1
    66   29   75 1
    67   29   76 1
    68   30   40 1
    69   30   77 1
    70   30   78 1
    71   30   79 1
    72   31   41 1
    73   31   80 1
    74   31   81 1
    75   31   82 1
    76   32   38 1
    77   33   39 1
    78   34   40 1
    79   34   52 1
    80   35   41 1
    81   38   44 1
    82   39   45 1
    83   40   46 1
    84   41   47 1
    85   44   48 1
    86   45   49 1
    87   46   50 1
    88   47   51 1
    89   50   52 1
    90   52   83 1
@<TRIPOS>SUBSTRUCTURE
     1 P450_metal_site        1 TEMP              0 ****  ****    0 ROOT
