@<TRIPOS>MOLECULE
HD1
   17    17     1     0     0
SMALL
USER_CHARGES


@<TRIPOS>ATOM
      1 N      -11.1070   -0.3750   11.1178 N         1 HD1     -0.415700
      2 H      -11.4036   -0.5128   12.0776 H         1 HD1      0.338981
      3 CA     -10.2390   -1.3356   10.4904 CX        1 HD1      0.018800
      4 HA     -10.5954   -1.5086    9.4709 H1        1 HD1      0.065060
      5 CB      -8.7864   -0.8130   10.3972 CT        1 HD1     -0.066058
      6 HB2     -8.1506   -1.5159    9.8576 HC        1 HD1      0.079510
      7 HB3     -8.8177    0.1091    9.8158 HC        1 HD1      0.079510
      8 CG      -8.2236   -0.5772   11.7535 CC        1 HD1     -0.091720
      9 ND1     -8.3772    0.6112   12.4311 NA        1 HD1     -0.086035
     10 HD1     -8.8279    1.4378   12.0733 H         1 HD1      0.315861
     11 CE1     -7.8784    0.4764   13.6673 CR        1 HD1     -0.085684
     12 HE1     -7.8732    1.2442   14.4216 H5        1 HD1      0.147914
     13 NE2     -7.4074   -0.7445   13.8289 Y1        1 HD1      0.029101
     14 CD2     -7.6124   -1.4117   12.6374 CV        1 HD1     -0.099292
     15 HD2     -7.3135   -2.4369   12.4895 H4        1 HD1      0.101867
     16 C      -10.2993   -2.6432   11.2667 C         1 HD1      0.597300
     17 O      -10.9151   -2.7525   12.3174 O         1 HD1     -0.567900
@<TRIPOS>BOND
     1    1    2 1
     2    1    3 1
     3    3    4 1
     4    3    5 1
     5    3   16 1
     6    5    6 1
     7    5    7 1
     8    5    8 1
     9    8    9 1
    10    8   14 1
    11    9   10 1
    12    9   11 1
    13   11   12 1
    14   11   13 1
    15   13   14 1
    16   14   15 1
    17   16   17 1
@<TRIPOS>SUBSTRUCTURE
     1 HD1         1 TEMP              0 ****  ****    0 ROOT
