@<TRIPOS>MOLECULE
HD1
   17    17     1     0     0
SMALL
USER_CHARGES


@<TRIPOS>ATOM
      1 N      -11.1070   -0.3749   11.1178 N         1 HD1     -0.415700
      2 H      -11.4038   -0.5128   12.0775 H         1 HD1      0.342680
      3 CA     -10.2390   -1.3355   10.4904 CX        1 HD1      0.018800
      4 HA     -10.5954   -1.5086    9.4709 H1        1 HD1      0.072951
      5 CB      -8.7864   -0.8130   10.3972 CT        1 HD1     -0.066233
      6 HB2     -8.1507   -1.5158    9.8575 HC        1 HD1      0.026856
      7 HB3     -8.8177    0.1093    9.8160 HC        1 HD1      0.095033
      8 CG      -8.2236   -0.5774   11.7535 CC        1 HD1      0.083627
      9 ND1     -8.3771    0.6111   12.4311 NA        1 HD1     -0.133052
     10 HD1     -8.8280    1.4376   12.0734 H         1 HD1      0.299595
     11 CE1     -7.8784    0.4763   13.6674 CR        1 HD1      0.040808
     12 HE1     -7.8731    1.2440   14.4217 H5        1 HD1      0.206188
     13 NE2     -7.4073   -0.7446   13.8289 Z1        1 HD1     -0.526130
     14 CD2     -7.6123   -1.4119   12.6374 CV        1 HD1     -0.130503
     15 HD2     -7.3134   -2.4370   12.4895 H4        1 HD1      0.163689
     16 C      -10.2993   -2.6431   11.2667 C         1 HD1      0.597300
     17 O      -10.9150   -2.7524   12.3175 O         1 HD1     -0.567900
@<TRIPOS>BOND
     1    1    2 1
     2    1    3 1
     3    3    4 1
     4    3    5 1
     5    3   16 1
     6    5    6 1
     7    5    7 1
     8    5    8 1
     9    8    9 1
    10    8   14 1
    11    9   10 1
    12    9   11 1
    13   11   12 1
    14   11   13 1
    15   13   14 1
    16   14   15 1
    17   16   17 1
@<TRIPOS>SUBSTRUCTURE
     1 HD1         1 TEMP              0 ****  ****    0 ROOT
