@<TRIPOS>MOLECULE
HE1
   17    17     1     0     0
SMALL
USER_CHARGES


@<TRIPOS>ATOM
      1 N      -11.9886   -2.5458   14.9908 N         1 HE1     -0.415700
      2 H      -11.6976   -2.5322   14.0208 H         1 HE1      0.308193
      3 CA     -11.7101   -1.3721   15.7876 CX        1 HE1     -0.058100
      4 HA     -12.1865   -1.5267   16.7564 H1        1 HE1      0.140818
      5 CB     -10.2057   -1.1464   15.9396 CT        1 HE1     -0.006851
      6 HB2     -9.7707   -1.1361   14.9377 HC        1 HE1      0.082039
      7 HB3    -10.0139   -0.1585   16.3709 HC        1 HE1      0.082039
      8 CG      -9.5442   -2.1926   16.7743 CC        1 HE1     -0.105188
      9 ND1     -8.1735   -2.3762   16.7577 Y3        1 HE1      0.108188
     10 CE1     -7.8993   -3.3214   17.6328 CR        1 HE1     -0.062968
     11 HE1     -6.9169   -3.6935   17.8745 H5        1 HE1      0.143225
     12 NE2     -9.0283   -3.7665   18.2003 NA        1 HE1     -0.139373
     13 HE2     -9.0883   -4.4706   18.9154 H         1 HE1      0.328497
     14 CD2    -10.0859   -3.0668   17.6669 CW        1 HE1     -0.141334
     15 HD2    -11.1104   -3.2721   17.9266 H4        1 HE1      0.159911
     16 C      -12.3115   -0.1577   15.0871 C         1 HE1      0.597300
     17 O      -11.9140    0.1806   13.9759 O         1 HE1     -0.567900
@<TRIPOS>BOND
     1    1    2 1
     2    1    3 1
     3    3    4 1
     4    3    5 1
     5    3   16 1
     6    5    6 1
     7    5    7 1
     8    5    8 1
     9    8    9 1
    10    8   14 1
    11    9   10 1
    12   10   11 1
    13   10   12 1
    14   12   13 1
    15   12   14 1
    16   14   15 1
    17   16   17 1
@<TRIPOS>SUBSTRUCTURE
     1 HE1         1 TEMP              0 ****  ****    0 ROOT
