@<TRIPOS>MOLECULE
MS1
   30    31     1     0     0
SMALL
USER_CHARGES


@<TRIPOS>ATOM
      1 HN31    -4.4144   -0.8561   16.9150 hn        1 MS1      0.242614
      2 HM23    -5.3803    5.8262   12.1988 h1        1 MS1      0.064800
      3 HM22    -6.6305    6.7991   12.9864 h1        1 MS1      0.064800
      4 HM21    -5.2197    7.5844   12.2749 h1        1 MS1      0.064800
      5 HM13    -3.1216    7.2379   15.1168 h1        1 MS1      0.068595
      6 HM12    -2.8152    6.1277   13.7764 h1        1 MS1      0.068595
      7 HM11    -3.2538    7.8110   13.4544 h1        1 MS1      0.068595
      8 H8      -6.5735    3.1992   17.7512 ha        1 MS1      0.152493
      9 H7      -7.0370    5.5812   17.9764 ha        1 MS1      0.142431
     10 H6      -6.2183    7.1913   16.2591 ha        1 MS1      0.086350
     11 H4      -4.0071    4.5297   13.0144 ha        1 MS1      0.134028
     12 H3      -3.5459    2.1570   12.7383 ha        1 MS1      0.148027
     13 H2      -4.3108    0.5306   14.4623 ha        1 MS1      0.050530
     14 C1      -5.2051    2.0188   15.6816 ca        1 MS1      0.011348
     15 C2      -4.5179    1.5846   14.5833 ca        1 MS1     -0.029573
     16 C3      -4.0871    2.5059   13.6084 ca        1 MS1     -0.190739
     17 C4      -4.3468    3.8332   13.7642 ca        1 MS1     -0.178130
     18 C4A     -5.0526    4.3216   14.8931 ca        1 MS1      0.086902
     19 C5      -5.3195    5.7160   15.0545 ca        1 MS1      0.013065
     20 C6      -6.0226    6.1342   16.1493 ca        1 MS1     -0.036688
     21 C7      -6.4842    5.2208   17.1177 ca        1 MS1     -0.151592
     22 C8      -6.2329    3.8870   16.9923 ca        1 MS1     -0.164944
     23 C8A     -5.5051    3.4025   15.8759 ca        1 MS1      0.040029
     24 N       -4.8734    6.6921   14.1141 nh        1 MS1     -0.187105
     25 CM1     -3.4454    6.9625   14.1112 c3        1 MS1     -0.102698
     26 CM2     -5.5531    6.7083   12.8312 c3        1 MS1     -0.116711
     27 S       -5.8143    0.8149   16.8457 sy        1 MS1      0.468912
     28 O1S     -7.2525    0.7416   16.5669 Y4        1 MS1     -0.387940
     29 O2S     -5.3926    1.2030   18.1621 o         1 MS1     -0.381706
     30 N3S     -5.2485   -0.5982   16.4075 Y5        1 MS1     -0.362979
@<TRIPOS>BOND
     1    1   30 1
     2    2   26 1
     3    3   26 1
     4    4   26 1
     5    5   25 1
     6    6   25 1
     7    7   25 1
     8    8   22 1
     9    9   21 1
    10   10   20 1
    11   11   17 1
    12   12   16 1
    13   13   15 1
    14   14   15 1
    15   14   23 1
    16   14   27 1
    17   15   16 1
    18   16   17 1
    19   17   18 1
    20   18   19 1
    21   18   23 1
    22   19   20 1
    23   19   24 1
    24   20   21 1
    25   21   22 1
    26   22   23 1
    27   24   25 1
    28   24   26 1
    29   27   28 1
    30   27   29 1
    31   27   30 1
@<TRIPOS>SUBSTRUCTURE
     1 MS1         1 TEMP              0 ****  ****    0 ROOT
