@<TRIPOS>MOLECULE
MS1
   30    31     1     0     0
SMALL
USER_CHARGES


@<TRIPOS>ATOM
      1 C1      -5.2050    2.0189   15.6816 ca        1 MS1     -0.088605
      2 C2      -4.5178    1.5846   14.5833 ca        1 MS1     -0.005117
      3 C3      -4.0871    2.5059   13.6084 ca        1 MS1     -0.286024
      4 C4      -4.3467    3.8333   13.7641 ca        1 MS1     -0.124747
      5 C4A     -5.0526    4.3216   14.8931 ca        1 MS1      0.104010
      6 C5      -5.3194    5.7160   15.0545 ca        1 MS1      0.105258
      7 C6      -6.0226    6.1341   16.1493 ca        1 MS1     -0.044433
      8 C7      -6.4842    5.2207   17.1177 ca        1 MS1     -0.174303
      9 C8      -6.2329    3.8869   16.9922 ca        1 MS1     -0.161626
     10 C8A     -5.5050    3.4025   15.8758 ca        1 MS1     -0.044518
     11 N       -4.8735    6.6921   14.1141 nh        1 MS1     -0.321809
     12 CM1     -3.4455    6.9626   14.1112 c3        1 MS1     -0.058598
     13 CM2     -5.5531    6.7084   12.8312 c3        1 MS1     -0.076192
     14 S       -5.8143    0.8150   16.8456 sy        1 MS1      1.354140
     15 O1S     -7.2525    0.7419   16.5667 Z4        1 MS1     -0.751287
     16 O2S     -5.3928    1.2029   18.1621 o         1 MS1     -0.520777
     17 N3S     -5.2486   -0.5982   16.4075 Z5        1 MS1     -1.823288
     18 HN31    -4.4149   -0.8563   16.9155 hn        1 MS1      0.664590
     19 HM23    -5.3802    5.8264   12.1987 h1        1 MS1      0.010376
     20 HM22    -6.6305    6.7991   12.9865 h1        1 MS1      0.058620
     21 HM21    -5.2198    7.5846   12.2750 h1        1 MS1      0.094185
     22 HM13    -3.1216    7.2378   15.1168 h1        1 MS1      0.068101
     23 HM12    -2.8152    6.1278   13.7762 h1        1 MS1      0.028669
     24 HM11    -3.2539    7.8112   13.4545 h1        1 MS1      0.072734
     25 H8      -6.5734    3.1991   17.7510 ha        1 MS1      0.169536
     26 H7      -7.0371    5.5811   17.9763 ha        1 MS1      0.143651
     27 H6      -6.2183    7.1912   16.2591 ha        1 MS1      0.097790
     28 H4      -4.0072    4.5297   13.0143 ha        1 MS1      0.189818
     29 H3      -3.5459    2.1570   12.7382 ha        1 MS1      0.145524
     30 H2      -4.3106    0.5306   14.4623 ha        1 MS1      0.174320
@<TRIPOS>BOND
     1    1    2 1
     2    1   10 1
     3    1   14 1
     4    2    3 1
     5    2   30 1
     6    3    4 1
     7    3   29 1
     8    4    5 1
     9    4   28 1
    10    5    6 1
    11    5   10 1
    12    6    7 1
    13    6   11 1
    14    7    8 1
    15    7   27 1
    16    8    9 1
    17    8   26 1
    18    9   10 1
    19    9   25 1
    20   11   12 1
    21   11   13 1
    22   12   22 1
    23   12   23 1
    24   12   24 1
    25   13   19 1
    26   13   20 1
    27   13   21 1
    28   14   15 1
    29   14   16 1
    30   14   17 1
    31   17   18 1
@<TRIPOS>SUBSTRUCTURE
     1 MS1         1 TEMP              0 ****  ****    0 ROOT
