@<TRIPOS>MOLECULE
ZINC_metal_site
   82    87     1     0     0
SMALL
USER_CHARGES


@<TRIPOS>ATOM
      1 N      -11.1070   -0.3750   11.1178 N         1 HID     -0.415700
      2 H      -11.4036   -0.5128   12.0776 H         1 HID      0.338981
      3 CA     -10.2390   -1.3356   10.4904 CX        1 HID      0.018800
      4 HA     -10.5954   -1.5086    9.4709 H1        1 HID      0.065060
      5 CB      -8.7864   -0.8130   10.3972 CT        1 HID     -0.066058
      6 HB2     -8.1506   -1.5159    9.8576 HC        1 HID      0.079510
      7 HB3     -8.8177    0.1091    9.8158 HC        1 HID      0.079510
      8 CG      -8.2236   -0.5772   11.7535 CC        1 HID     -0.091720
      9 ND1     -8.3772    0.6112   12.4311 NA        1 HID     -0.086035
     10 HD1     -8.8279    1.4378   12.0733 H         1 HID      0.315861
     11 CE1     -7.8784    0.4764   13.6673 CR        1 HID     -0.085684
     12 HE1     -7.8732    1.2442   14.4216 H5        1 HID      0.147914
     13 NE2     -7.4074   -0.7445   13.8289 Y1        1 HID      0.029101
     14 CD2     -7.6124   -1.4117   12.6374 CV        1 HID     -0.099292
     15 HD2     -7.3135   -2.4369   12.4895 H4        1 HID      0.101867
     16 C      -10.2993   -2.6432   11.2667 C         1 HID      0.597300
     17 O      -10.9151   -2.7525   12.3174 O         1 HID     -0.567900
     18 N       -8.0929   -6.5150   12.4364 N         1 HID     -0.415700
     19 H       -8.9428   -7.0064   12.6798 H         1 HID      0.312926
     20 CA      -6.8790   -7.2673   12.6698 CX        1 HID      0.018800
     21 HA      -6.1506   -6.9822   11.9090 H1        1 HID      0.101360
     22 CB      -6.3165   -7.0096   14.0804 CT        1 HID      0.105552
     23 HB2     -7.0607   -7.3539   14.8000 HC        1 HID      0.064188
     24 HB3     -5.4230   -7.6199   14.2330 HC        1 HID      0.064188
     25 CG      -6.0120   -5.5757   14.3426 CC        1 HID     -0.273128
     26 ND1     -4.7572   -5.0243   14.2057 NA        1 HID     -0.102352
     27 HD1     -3.9210   -5.5181   13.9437 H         1 HID      0.307806
     28 CE1     -4.8264   -3.7153   14.5112 CR        1 HID     -0.034775
     29 HE1     -3.9809   -3.0483   14.5048 H5        1 HID      0.154499
     30 NE2     -6.0563   -3.3894   14.8352 Y2        1 HID      0.010890
     31 CD2     -6.8063   -4.5411   14.7279 CV        1 HID     -0.023260
     32 HD2     -7.8645   -4.5488   14.9261 H4        1 HID      0.093464
     33 C       -7.2873   -8.7402   12.5729 C         1 HID      0.597300
     34 O       -8.3259   -9.0946   13.1074 O         1 HID     -0.567900
     35 N      -11.9886   -2.5458   14.9908 N         1 HIE     -0.415700
     36 H      -11.6976   -2.5322   14.0208 H         1 HIE      0.308193
     37 CA     -11.7101   -1.3721   15.7876 CX        1 HIE     -0.058100
     38 HA     -12.1865   -1.5267   16.7564 H1        1 HIE      0.140818
     39 CB     -10.2057   -1.1464   15.9396 CT        1 HIE     -0.006851
     40 HB2     -9.7707   -1.1361   14.9377 HC        1 HIE      0.082039
     41 HB3    -10.0139   -0.1585   16.3709 HC        1 HIE      0.082039
     42 CG      -9.5442   -2.1926   16.7743 CC        1 HIE     -0.105188
     43 ND1     -8.1735   -2.3762   16.7577 Y3        1 HIE      0.108188
     44 CE1     -7.8993   -3.3214   17.6328 CR        1 HIE     -0.062968
     45 HE1     -6.9169   -3.6935   17.8745 H5        1 HIE      0.143225
     46 NE2     -9.0283   -3.7665   18.2003 NA        1 HIE     -0.139373
     47 HE2     -9.0883   -4.4706   18.9154 H         1 HIE      0.328497
     48 CD2    -10.0859   -3.0668   17.6669 CW        1 HIE     -0.141334
     49 HD2    -11.1104   -3.2721   17.9266 H4        1 HIE      0.159911
     50 C      -12.3115   -0.1577   15.0871 C         1 HIE      0.597300
     51 O      -11.9140    0.1806   13.9759 O         1 HIE     -0.567900
     52 ZN      -6.7420   -1.5455   15.5613 M1        1 ZN       0.085717
     53 HN31    -4.4144   -0.8561   16.9150 hn        1 MNS      0.242614
     54 HM23    -5.3803    5.8262   12.1988 h1        1 MNS      0.064800
     55 HM22    -6.6305    6.7991   12.9864 h1        1 MNS      0.064800
     56 HM21    -5.2197    7.5844   12.2749 h1        1 MNS      0.064800
     57 HM13    -3.1216    7.2379   15.1168 h1        1 MNS      0.068595
     58 HM12    -2.8152    6.1277   13.7764 h1        1 MNS      0.068595
     59 HM11    -3.2538    7.8110   13.4544 h1        1 MNS      0.068595
     60 H8      -6.5735    3.1992   17.7512 ha        1 MNS      0.152493
     61 H7      -7.0370    5.5812   17.9764 ha        1 MNS      0.142431
     62 H6      -6.2183    7.1913   16.2591 ha        1 MNS      0.086350
     63 H4      -4.0071    4.5297   13.0144 ha        1 MNS      0.134028
     64 H3      -3.5459    2.1570   12.7383 ha        1 MNS      0.148027
     65 H2      -4.3108    0.5306   14.4623 ha        1 MNS      0.050530
     66 C1      -5.2051    2.0188   15.6816 ca        1 MNS      0.011348
     67 C2      -4.5179    1.5846   14.5833 ca        1 MNS     -0.029573
     68 C3      -4.0871    2.5059   13.6084 ca        1 MNS     -0.190739
     69 C4      -4.3468    3.8332   13.7642 ca        1 MNS     -0.178130
     70 C4A     -5.0526    4.3216   14.8931 ca        1 MNS      0.086902
     71 C5      -5.3195    5.7160   15.0545 ca        1 MNS      0.013065
     72 C6      -6.0226    6.1342   16.1493 ca        1 MNS     -0.036688
     73 C7      -6.4842    5.2208   17.1177 ca        1 MNS     -0.151592
     74 C8      -6.2329    3.8870   16.9923 ca        1 MNS     -0.164944
     75 C8A     -5.5051    3.4025   15.8759 ca        1 MNS      0.040029
     76 N       -4.8734    6.6921   14.1141 nh        1 MNS     -0.187105
     77 CM1     -3.4454    6.9625   14.1112 c3        1 MNS     -0.102698
     78 CM2     -5.5531    6.7083   12.8312 c3        1 MNS     -0.116711
     79 S       -5.8143    0.8149   16.8457 sy        1 MNS      0.468912
     80 O1S     -7.2525    0.7416   16.5669 Y4        1 MNS     -0.387940
     81 O2S     -5.3926    1.2030   18.1621 o         1 MNS     -0.381706
     82 N3S     -5.2485   -0.5982   16.4075 Y5        1 MNS     -0.362979
@<TRIPOS>BOND
     1    1    2 1
     2    1    3 1
     3    3    4 1
     4    3    5 1
     5    3   16 1
     6    5    6 1
     7    5    7 1
     8    5    8 1
     9    8    9 1
    10    8   14 1
    11    9   10 1
    12    9   11 1
    13   11   12 1
    14   11   13 1
    15   13   14 1
    16   13   52 1
    17   14   15 1
    18   16   17 1
    19   18   19 1
    20   18   20 1
    21   20   21 1
    22   20   22 1
    23   20   33 1
    24   22   23 1
    25   22   24 1
    26   22   25 1
    27   25   26 1
    28   25   31 1
    29   26   27 1
    30   26   28 1
    31   28   29 1
    32   28   30 1
    33   30   31 1
    34   30   52 1
    35   31   32 1
    36   33   34 1
    37   35   36 1
    38   35   37 1
    39   37   38 1
    40   37   39 1
    41   37   50 1
    42   39   40 1
    43   39   41 1
    44   39   42 1
    45   42   43 1
    46   42   48 1
    47   43   44 1
    48   43   52 1
    49   44   45 1
    50   44   46 1
    51   46   47 1
    52   46   48 1
    53   48   49 1
    54   50   51 1
    55   52   80 1
    56   52   82 1
    57   53   82 1
    58   54   78 1
    59   55   78 1
    60   56   78 1
    61   57   77 1
    62   58   77 1
    63   59   77 1
    64   60   74 1
    65   61   73 1
    66   62   72 1
    67   63   69 1
    68   64   68 1
    69   65   67 1
    70   66   67 1
    71   66   75 1
    72   66   79 1
    73   67   68 1
    74   68   69 1
    75   69   70 1
    76   70   71 1
    77   70   75 1
    78   71   72 1
    79   71   76 1
    80   72   73 1
    81   73   74 1
    82   74   75 1
    83   76   77 1
    84   76   78 1
    85   79   80 1
    86   79   81 1
    87   79   82 1
@<TRIPOS>SUBSTRUCTURE
     1 ZINC_metal_site        1 TEMP              0 ****  ****    0 ROOT
