@<TRIPOS>MOLECULE
ZINC_metal_site
   82    87     1     0     0
SMALL
USER_CHARGES


@<TRIPOS>ATOM
      1 N      -11.1070   -0.3749   11.1178 N         1 HID     -0.415700
      2 H      -11.4038   -0.5128   12.0775 H         1 HID      0.342680
      3 CA     -10.2390   -1.3355   10.4904 CX        1 HID      0.018800
      4 HA     -10.5954   -1.5086    9.4709 H1        1 HID      0.072951
      5 CB      -8.7864   -0.8130   10.3972 CT        1 HID     -0.066233
      6 HB2     -8.1507   -1.5158    9.8575 HC        1 HID      0.026856
      7 HB3     -8.8177    0.1093    9.8160 HC        1 HID      0.095033
      8 CG      -8.2236   -0.5774   11.7535 CC        1 HID      0.083627
      9 ND1     -8.3771    0.6111   12.4311 NA        1 HID     -0.133052
     10 HD1     -8.8280    1.4376   12.0734 H         1 HID      0.299595
     11 CE1     -7.8784    0.4763   13.6674 CR        1 HID      0.040808
     12 HE1     -7.8731    1.2440   14.4217 H5        1 HID      0.206188
     13 NE2     -7.4073   -0.7446   13.8289 Z1        1 HID     -0.526130
     14 CD2     -7.6123   -1.4119   12.6374 CV        1 HID     -0.130503
     15 HD2     -7.3134   -2.4370   12.4895 H4        1 HID      0.163689
     16 C      -10.2993   -2.6431   11.2667 C         1 HID      0.597300
     17 O      -10.9150   -2.7524   12.3175 O         1 HID     -0.567900
     18 N       -8.0929   -6.5150   12.4363 N         1 HID     -0.415700
     19 H       -8.9429   -7.0065   12.6797 H         1 HID      0.307406
     20 CA      -6.8790   -7.2673   12.6698 CX        1 HID      0.018800
     21 HA      -6.1507   -6.9821   11.9090 H1        1 HID      0.083873
     22 CB      -6.3165   -7.0096   14.0804 CT        1 HID      0.216232
     23 HB2     -7.0607   -7.3540   14.8000 HC        1 HID      0.039796
     24 HB3     -5.4229   -7.6199   14.2329 HC        1 HID      0.000215
     25 CG      -6.0120   -5.5758   14.3426 CC        1 HID     -0.162824
     26 ND1     -4.7572   -5.0243   14.2056 NA        1 HID     -0.121100
     27 HD1     -3.9211   -5.5181   13.9435 H         1 HID      0.298189
     28 CE1     -4.8264   -3.7153   14.5112 CR        1 HID      0.043838
     29 HE1     -3.9809   -3.0483   14.5047 H5        1 HID      0.185434
     30 NE2     -6.0563   -3.3894   14.8352 Z2        1 HID     -0.400011
     31 CD2     -6.8063   -4.5411   14.7280 CV        1 HID     -0.082629
     32 HD2     -7.8645   -4.5488   14.9262 H4        1 HID      0.093101
     33 C       -7.2873   -8.7402   12.5729 C         1 HID      0.597300
     34 O       -8.3258   -9.0946   13.1074 O         1 HID     -0.567900
     35 N      -11.9886   -2.5458   14.9908 N         1 HIE     -0.415700
     36 H      -11.6976   -2.5323   14.0208 H         1 HIE      0.307487
     37 CA     -11.7101   -1.3721   15.7876 CX        1 HIE     -0.058100
     38 HA     -12.1864   -1.5267   16.7564 H1        1 HIE      0.116393
     39 CB     -10.2056   -1.1464   15.9396 CT        1 HIE     -0.119671
     40 HB2     -9.7706   -1.1362   14.9377 HC        1 HIE      0.069816
     41 HB3    -10.0138   -0.1585   16.3708 HC        1 HIE      0.150158
     42 CG      -9.5443   -2.1926   16.7744 CC        1 HIE     -0.099497
     43 ND1     -8.1735   -2.3762   16.7578 Z3        1 HIE     -0.081837
     44 CE1     -7.8993   -3.3215   17.6329 CR        1 HIE     -0.053908
     45 HE1     -6.9169   -3.6936   17.8746 H5        1 HIE      0.149787
     46 NE2     -9.0283   -3.7665   18.2004 NA        1 HIE     -0.167245
     47 HE2     -9.0884   -4.4706   18.9154 H         1 HIE      0.329450
     48 CD2    -10.0859   -3.0668   17.6670 CW        1 HIE     -0.092524
     49 HD2    -11.1105   -3.2721   17.9266 H4        1 HIE      0.170238
     50 C      -12.3115   -0.1578   15.0871 C         1 HIE      0.597300
     51 O      -11.9140    0.1805   13.9759 O         1 HIE     -0.567900
     52 ZN      -6.7420   -1.5457   15.5613 M1        1 ZN       1.523726
     53 C1      -5.2050    2.0189   15.6816 ca        1 MNS     -0.088605
     54 C2      -4.5178    1.5846   14.5833 ca        1 MNS     -0.005117
     55 C3      -4.0871    2.5059   13.6084 ca        1 MNS     -0.286024
     56 C4      -4.3467    3.8333   13.7641 ca        1 MNS     -0.124747
     57 C4A     -5.0526    4.3216   14.8931 ca        1 MNS      0.104010
     58 C5      -5.3194    5.7160   15.0545 ca        1 MNS      0.105258
     59 C6      -6.0226    6.1341   16.1493 ca        1 MNS     -0.044433
     60 C7      -6.4842    5.2207   17.1177 ca        1 MNS     -0.174303
     61 C8      -6.2329    3.8869   16.9922 ca        1 MNS     -0.161626
     62 C8A     -5.5050    3.4025   15.8758 ca        1 MNS     -0.044518
     63 N       -4.8735    6.6921   14.1141 nh        1 MNS     -0.321809
     64 CM1     -3.4455    6.9626   14.1112 c3        1 MNS     -0.058598
     65 CM2     -5.5531    6.7084   12.8312 c3        1 MNS     -0.076192
     66 S       -5.8143    0.8150   16.8456 sy        1 MNS      1.354140
     67 O1S     -7.2525    0.7419   16.5667 Z4        1 MNS     -0.751287
     68 O2S     -5.3928    1.2029   18.1621 o         1 MNS     -0.520777
     69 N3S     -5.2486   -0.5982   16.4075 Z5        1 MNS     -1.823288
     70 HN31    -4.4149   -0.8563   16.9155 hn        1 MNS      0.664590
     71 HM23    -5.3802    5.8264   12.1987 h1        1 MNS      0.010376
     72 HM22    -6.6305    6.7991   12.9865 h1        1 MNS      0.058620
     73 HM21    -5.2198    7.5846   12.2750 h1        1 MNS      0.094185
     74 HM13    -3.1216    7.2378   15.1168 h1        1 MNS      0.068101
     75 HM12    -2.8152    6.1278   13.7762 h1        1 MNS      0.028669
     76 HM11    -3.2539    7.8112   13.4545 h1        1 MNS      0.072734
     77 H8      -6.5734    3.1991   17.7510 ha        1 MNS      0.169536
     78 H7      -7.0371    5.5811   17.9763 ha        1 MNS      0.143651
     79 H6      -6.2183    7.1912   16.2591 ha        1 MNS      0.097790
     80 H4      -4.0072    4.5297   13.0143 ha        1 MNS      0.189818
     81 H3      -3.5459    2.1570   12.7382 ha        1 MNS      0.145524
     82 H2      -4.3106    0.5306   14.4623 ha        1 MNS      0.174320
@<TRIPOS>BOND
     1    1    2 1
     2    1    3 1
     3    3    4 1
     4    3    5 1
     5    3   16 1
     6    5    6 1
     7    5    7 1
     8    5    8 1
     9    8    9 1
    10    8   14 1
    11    9   10 1
    12    9   11 1
    13   11   12 1
    14   11   13 1
    15   13   14 1
    16   13   52 1
    17   14   15 1
    18   16   17 1
    19   18   19 1
    20   18   20 1
    21   20   21 1
    22   20   22 1
    23   20   33 1
    24   22   23 1
    25   22   24 1
    26   22   25 1
    27   25   26 1
    28   25   31 1
    29   26   27 1
    30   26   28 1
    31   28   29 1
    32   28   30 1
    33   30   31 1
    34   30   52 1
    35   31   32 1
    36   33   34 1
    37   35   36 1
    38   35   37 1
    39   37   38 1
    40   37   39 1
    41   37   50 1
    42   39   40 1
    43   39   41 1
    44   39   42 1
    45   42   43 1
    46   42   48 1
    47   43   44 1
    48   43   52 1
    49   44   45 1
    50   44   46 1
    51   46   47 1
    52   46   48 1
    53   48   49 1
    54   50   51 1
    55   52   67 1
    56   52   69 1
    57   53   54 1
    58   53   62 1
    59   53   66 1
    60   54   55 1
    61   54   82 1
    62   55   56 1
    63   55   81 1
    64   56   57 1
    65   56   80 1
    66   57   58 1
    67   57   62 1
    68   58   59 1
    69   58   63 1
    70   59   60 1
    71   59   79 1
    72   60   61 1
    73   60   78 1
    74   61   62 1
    75   61   77 1
    76   63   64 1
    77   63   65 1
    78   64   74 1
    79   64   75 1
    80   64   76 1
    81   65   71 1
    82   65   72 1
    83   65   73 1
    84   66   67 1
    85   66   68 1
    86   66   69 1
    87   69   70 1
@<TRIPOS>SUBSTRUCTURE
     1 ZINC_metal_site        1 TEMP              0 ****  ****    0 ROOT
