5478841
  -OEChem-03142623163D

 53 52  0     1  0  0  0  0  0999 V2000
   -0.8823   -0.1329    1.0657 O   0  0  0  0  0  0  0  0  0  0  0  0
    3.3277    1.4569   -0.9393 O   0  0  0  0  0  0  0  0  0  0  0  0
   -3.6600   -0.2428   -1.7995 O   0  0  0  0  0  0  0  0  0  0  0  0
    5.1801   -1.8386    0.3433 O   0  0  0  0  0  0  0  0  0  0  0  0
   -7.2230    0.4051    1.2288 O   0  0  0  0  0  0  0  0  0  0  0  0
   -8.1707   -1.4506    0.3499 O   0  0  0  0  0  0  0  0  0  0  0  0
    1.7094    0.2976    0.2522 N   0  0  0  0  0  0  0  0  0  0  0  0
   -1.6177    1.2150   -0.6737 N   0  0  0  0  0  0  0  0  0  0  0  0
    5.2442    0.4441    0.7531 N   0  0  0  0  0  0  0  0  0  0  0  0
   -4.8589   -0.0271    0.1750 N   0  0  0  0  0  0  0  0  0  0  0  0
    7.9335   -1.8620    0.1885 N   0  0  0  0  0  0  0  0  0  0  0  0
    0.6568    0.4032   -0.7315 C   0  0  2  0  0  0  0  0  0  0  0  0
   -2.9595    1.4226   -0.1803 C   0  0  2  0  0  0  0  0  0  0  0  0
    3.8931    0.5723    1.2479 C   0  0  2  0  0  0  0  0  0  0  0  0
   -0.6792    0.4445   -0.0004 C   0  0  0  0  0  0  0  0  0  0  0  0
    2.9732    0.8404    0.0635 C   0  0  0  0  0  0  0  0  0  0  0  0
    0.7022   -0.7866   -1.6820 C   0  0  0  0  0  0  0  0  0  0  0  0
   -3.8440    0.3025   -0.7133 C   0  0  0  0  0  0  0  0  0  0  0  0
   -3.4867    2.7761   -0.6402 C   0  0  0  0  0  0  0  0  0  0  0  0
    3.8060    1.7136    2.2534 C   0  0  0  0  0  0  0  0  0  0  0  0
   -5.8250   -1.0677   -0.0909 C   0  0  1  0  0  0  0  0  0  0  0  0
    7.2268   -0.6222   -0.1233 C   0  0  2  0  0  0  0  0  0  0  0  0
    5.7817   -0.7665    0.3368 C   0  0  0  0  0  0  0  0  0  0  0  0
   -5.3247   -2.4074    0.4279 C   0  0  0  0  0  0  0  0  0  0  0  0
    7.2795   -0.3478   -1.6209 C   0  0  0  0  0  0  0  0  0  0  0  0
   -7.1826   -0.7418    0.5091 C   0  0  0  0  0  0  0  0  0  0  0  0
    0.8006    1.3310   -1.2973 H   0  0  0  0  0  0  0  0  0  0  0  0
   -2.9355    1.3877    0.9150 H   0  0  0  0  0  0  0  0  0  0  0  0
    3.6105   -0.3696    1.7321 H   0  0  0  0  0  0  0  0  0  0  0  0
    1.5125   -0.2105    1.1100 H   0  0  0  0  0  0  0  0  0  0  0  0
   -1.3830    1.5897   -1.5886 H   0  0  0  0  0  0  0  0  0  0  0  0
   -0.0945   -0.7198   -2.4304 H   0  0  0  0  0  0  0  0  0  0  0  0
    1.6620   -0.8343   -2.2073 H   0  0  0  0  0  0  0  0  0  0  0  0
    0.5706   -1.7315   -1.1422 H   0  0  0  0  0  0  0  0  0  0  0  0
    5.7920    1.2923    0.6377 H   0  0  0  0  0  0  0  0  0  0  0  0
   -3.5293    2.8374   -1.7338 H   0  0  0  0  0  0  0  0  0  0  0  0
   -4.4989    2.9506   -0.2602 H   0  0  0  0  0  0  0  0  0  0  0  0
   -2.8420    3.5871   -0.2851 H   0  0  0  0  0  0  0  0  0  0  0  0
    2.7884    1.8113    2.6461 H   0  0  0  0  0  0  0  0  0  0  0  0
    4.4845    1.5439    3.0962 H   0  0  0  0  0  0  0  0  0  0  0  0
    4.0763    2.6716    1.7944 H   0  0  0  0  0  0  0  0  0  0  0  0
   -5.9668   -1.1234   -1.1767 H   0  0  0  0  0  0  0  0  0  0  0  0
   -4.9283    0.4717    1.0574 H   0  0  0  0  0  0  0  0  0  0  0  0
    7.7095    0.2000    0.4171 H   0  0  0  0  0  0  0  0  0  0  0  0
   -5.1843   -2.3817    1.5147 H   0  0  0  0  0  0  0  0  0  0  0  0
   -6.0372   -3.2086    0.2052 H   0  0  0  0  0  0  0  0  0  0  0  0
   -4.3633   -2.6720   -0.0254 H   0  0  0  0  0  0  0  0  0  0  0  0
    6.8023   -1.1514   -2.1938 H   0  0  0  0  0  0  0  0  0  0  0  0
    8.3132   -0.2467   -1.9689 H   0  0  0  0  0  0  0  0  0  0  0  0
    6.7508    0.5810   -1.8627 H   0  0  0  0  0  0  0  0  0  0  0  0
    8.9020   -1.7918   -0.1216 H   0  0  0  0  0  0  0  0  0  0  0  0
    7.9678   -1.9912    1.1991 H   0  0  0  0  0  0  0  0  0  0  0  0
   -8.1174    0.5788    1.5923 H   0  0  0  0  0  0  0  0  0  0  0  0
  1 15  2  0  0  0  0
  2 16  2  0  0  0  0
  3 18  2  0  0  0  0
  4 23  2  0  0  0  0
  5 26  1  0  0  0  0
  5 53  1  0  0  0  0
  6 26  2  0  0  0  0
  7 12  1  0  0  0  0
  7 16  1  0  0  0  0
  7 30  1  0  0  0  0
  8 13  1  0  0  0  0
  8 15  1  0  0  0  0
  8 31  1  0  0  0  0
  9 14  1  0  0  0  0
  9 23  1  0  0  0  0
  9 35  1  0  0  0  0
 10 18  1  0  0  0  0
 10 21  1  0  0  0  0
 10 43  1  0  0  0  0
 11 22  1  0  0  0  0
 11 51  1  0  0  0  0
 11 52  1  0  0  0  0
 12 15  1  0  0  0  0
 12 17  1  0  0  0  0
 12 27  1  0  0  0  0
 13 18  1  0  0  0  0
 13 19  1  0  0  0  0
 13 28  1  0  0  0  0
 14 16  1  0  0  0  0
 14 20  1  0  0  0  0
 14 29  1  0  0  0  0
 17 32  1  0  0  0  0
 17 33  1  0  0  0  0
 17 34  1  0  0  0  0
 19 36  1  0  0  0  0
 19 37  1  0  0  0  0
 19 38  1  0  0  0  0
 20 39  1  0  0  0  0
 20 40  1  0  0  0  0
 20 41  1  0  0  0  0
 21 24  1  0  0  0  0
 21 26  1  0  0  0  0
 21 42  1  0  0  0  0
 22 23  1  0  0  0  0
 22 25  1  0  0  0  0
 22 44  1  0  0  0  0
 24 45  1  0  0  0  0
 24 46  1  0  0  0  0
 24 47  1  0  0  0  0
 25 48  1  0  0  0  0
 25 49  1  0  0  0  0
 25 50  1  0  0  0  0
M  END
> <PUBCHEM_COMPOUND_CID>
5478841

> <PUBCHEM_CONFORMER_RMSD>
1

> <PUBCHEM_CONFORMER_DIVERSEORDER>
1
99
49
10
67
37
69
71
92
76
114
30
55
112
16
3
115
4
117
15
73
32
111
17
57
54
89
82
41
50
83
103
102
61
79
78
118
51
35
98
108
106
8
104
21
59
40
56
52
86
96
84
20
91
63
88
19
74
5
13
77
62
93
47
105
72
7
80
60
18
44
2
48
110
97
45
9
116
34
101
66
95
58
26
46
107
36
43
28
94
85
81
12
38
25
31
11
109
90
68
75
64
113
65
6
22
100
70
27
42
53
33
39
23
29
87
24
14

> <PUBCHEM_MMFF94_PARTIAL_CHARGES>
28
1 -0.57
10 -0.73
11 -0.99
12 0.36
13 0.36
14 0.36
15 0.57
16 0.57
18 0.57
2 -0.57
21 0.36
22 0.33
23 0.57
26 0.66
3 -0.57
30 0.37
31 0.37
35 0.37
4 -0.57
43 0.37
5 -0.65
51 0.36
52 0.36
53 0.5
6 -0.57
7 -0.73
8 -0.73
9 -0.73

> <PUBCHEM_EFFECTIVE_ROTOR_COUNT>
13

> <PUBCHEM_PHARMACOPHORE_FEATURES>
13
1 1 acceptor
1 10 donor
1 11 cation
1 11 donor
1 2 acceptor
1 3 acceptor
1 4 acceptor
1 5 acceptor
1 6 acceptor
1 7 donor
1 8 donor
1 9 donor
3 5 6 26 anion

> <PUBCHEM_HEAVY_ATOM_COUNT>
26

> <PUBCHEM_ATOM_DEF_STEREO_COUNT>
5

> <PUBCHEM_ATOM_UDEF_STEREO_COUNT>
0

> <PUBCHEM_BOND_DEF_STEREO_COUNT>
0

> <PUBCHEM_BOND_UDEF_STEREO_COUNT>
0

> <PUBCHEM_ISOTOPIC_ATOM_COUNT>
0

> <PUBCHEM_COMPONENT_COUNT>
1

> <PUBCHEM_CACTVS_TAUTO_COUNT>
16

> <PUBCHEM_CONFORMER_ID>
005399B900000001

> <PUBCHEM_MMFF94_ENERGY>
44.2668

> <PUBCHEM_FEATURE_SELFOVERLAP>
66.037

> <PUBCHEM_SHAPE_FINGERPRINT>
10 15 17060058185529672801
10299344 5 18333455339117380470
11524674 6 17275385426117254511
12166972 35 18410012152402087288
12616971 3 16487246703418056392
13668630 136 17749105590863545726
13685833 64 18412824677697004450
14251764 18 17894638045507067228
15048467 5 10447929472811417181
15183329 4 13045936902671066999
15352257 5 18335139791053030962
1818759 1 17603874425226154811
18222031 100 17022895757494181596
18608769 82 18409447016257279018
18927931 339 18411132541928296639
20281389 69 12391524078825254811
21150785 3 15140962863372938422
21267235 1 18333733515548749301
23035841 295 18333452062806309539
23081809 10 15554152779050583104
23559900 14 18041562550369809492
246663 6 18409169913150690914
300161 21 10159699105287057092
3004659 81 17313100886730968597
3178227 256 17703790323701590122
3633792 109 15791450435229573837
465052 167 18131630063793389406
5104073 3 18271801272841579905
54039377 194 17603875533322578523
6328613 192 9943808889451322879

> <PUBCHEM_SHAPE_MULTIPOLES>
474.95
24.01
2
1.44
0.11
0.21
-0.01
-12.7
-3.41
1.05
-0.16
-1.03
0.33
1.47

> <PUBCHEM_SHAPE_SELFOVERLAP>
931.237

> <PUBCHEM_SHAPE_VOLUME>
284.2

> <PUBCHEM_COORDINATE_TYPE>
2
5
10

$$$$
