@<TRIPOS>MOLECULE
HF1
  111   117     1     0     0
SMALL
rc


@<TRIPOS>ATOM
      1 CMA        -10.5040    -5.5050    -3.2300 c3         1 HF1      -0.417079
      2 CAC         -9.0050    -5.0470    -3.0930 c          1 HF1       0.671591
      3 OAC         -8.1980    -5.7330    -2.5150 o          1 HF1      -0.607262
      4 H1A        -11.0990    -4.9560    -3.9600 hc         1 HF1       0.131944
      5 H2A        -11.0290    -5.5780    -2.2780 hc         1 HF1       0.131944
      6 H3A        -10.5140    -6.5670    -3.4760 hc         1 HF1       0.131944
      7 P1         -11.2770    -1.4040    -3.8190 p5         1 HF1       0.900914
      8 P2         -12.6440    -2.6800    -1.5600 p5         1 HF1       0.789009
      9 CA          -7.0670    -3.5070    -3.7450 c3         1 HF1       0.019425
     10 N           -8.4910    -3.8960    -3.6930 ns         1 HF1      -0.294469
     11 C           -6.6140    -2.9510    -2.3810 c          1 HF1       0.536537
     12 N2          -4.3830    -3.3120    -5.3760 na         1 HF1      -0.033814
     13 O           -6.5710    -1.7610    -2.1400 o          1 HF1      -0.517184
     14 C3          -6.7630    -2.5370    -4.8930 c3         1 HF1      -0.027356
     15 N3          -4.6500    -4.4760    -7.2500 nc         1 HF1      -0.581620
     16 O3         -12.5830    -0.9930    -4.3570 o          1 HF1      -0.683463
     17 C4          -5.7050    -3.1300    -5.7670 cd         1 HF1       0.067525
     18 O4         -10.1820    -1.9430    -4.6920 o          1 HF1      -0.628053
     19 C5          -5.8300    -3.8480    -6.9190 cc         1 HF1       0.291546
     20 N5          -4.6810     4.2460    -2.7210 nc         1 HF1      -0.590171
     21 O5         -11.4170    -2.4850    -2.6070 os         1 HF1      -0.170539
     22 C6          -3.8190    -4.1350    -6.3060 cd         1 HF1       0.385271
     23 N6         -20.8780     0.3440    -1.3240 nb         1 HF1      -0.776797
     24 O6         -10.6900    -0.1110    -3.0010 os         1 HF1      -0.374445
     25 C7          -9.3430    -0.1620    -2.5730 c3         1 HF1       0.004817
     26 N7          -3.4560     5.9070    -3.9460 ns         1 HF1      -0.484579
     27 O7          -9.9210     1.4660    -0.8980 oh         1 HF1      -0.592052
     28 C8          -9.0450     1.2000    -1.9800 c3         1 HF1       0.105393
     29 N8         -19.2700     0.2510     0.4590 nb         1 HF1      -0.658845
     30 O8          -7.2040     0.3860    -0.5480 oh         1 HF1      -0.661483
     31 C9          -7.6180     1.3660    -1.4750 c3         1 HF1       0.032139
     32 N9          -2.3770     2.7070    -5.0430 nc         1 HF1      -0.519595
     33 O9          -6.9260     2.5140    -3.5230 oh         1 HF1      -0.592477
     34 C10         -6.6140     1.4650    -2.6260 c3         1 HF1       0.041590
     35 N10        -20.3820    -0.3230    -3.4910 nv         1 HF1      -0.810725
     36 O10        -12.0440    -3.1510    -0.2660 o          1 HF1      -0.660060
     37 C11         -5.2080     1.6530    -2.0430 c3         1 HF1      -0.017084
     38 N11        -17.6260    -0.9540    -2.4630 nc         1 HF1      -0.480812
     39 O11         -5.0260     6.4760    -2.4410 o          1 HF1      -0.572897
     40 C12        -16.3090    -0.3990     0.8940 c5         1 HF1       0.037476
     41 N12        -17.1070    -0.5900    -0.3090 na         1 HF1      -0.136878
     42 O12        -13.7520    -3.4220    -2.2000 o          1 HF1      -0.606157
     43 C13         -4.4380     5.5770    -2.9850 c          1 HF1       0.751707
     44 N13         -4.2430     2.0110    -3.0900 na         1 HF1      -0.035977
     45 O13        -15.7980    -1.4600     2.9880 oh         1 HF1      -0.706681
     46 C14        -20.4600     0.5070    -0.0700 ca         1 HF1       0.657779
     47 O14        -13.8390    -2.9030     1.7490 oh         1 HF1      -0.688913
     48 C15        -15.9390    -1.7070     1.6000 c5         1 HF1       0.343418
     49 O15         -1.9330     5.3930    -5.5450 o          1 HF1      -0.513020
     50 C16        -14.5890    -2.0110     0.9750 c5         1 HF1       0.147163
     51 O16        -15.1010     0.2300     0.5260 os         1 HF1      -0.375162
     52 C17         -2.7230     5.0450    -4.7080 c          1 HF1       0.461513
     53 O17        -13.1470    -1.1370    -1.3420 os         1 HF1      -0.333874
     54 C18        -18.4250    -0.2350    -0.4500 ca         1 HF1       0.561264
     55 C19        -13.9860    -0.6060     0.8760 c5         1 HF1       0.080877
     56 C20         -3.0180     3.6010    -4.3910 cd         1 HF1       0.442575
     57 C21        -18.7140    -0.4710    -1.7900 ca         1 HF1       0.051546
     58 C22        -12.8660    -0.4560    -0.1350 c3         1 HF1      -0.008138
     59 C23         -2.6760     1.3880    -4.7870 ca         1 HF1       0.317135
     60 C24         -1.9850     0.4050    -5.4980 ca         1 HF1      -0.215846
     61 C25        -20.0040    -0.1490    -2.2140 ca         1 HF1       0.760875
     62 C26         -2.2490    -0.9300    -5.3260 ca         1 HF1       0.007484
     63 C27         -1.4480    -1.9370    -6.1010 c3         1 HF1      -0.176260
     64 C28         -3.2840    -1.2910    -4.4230 ca         1 HF1       0.033447
     65 C29        -16.6820    -1.0080    -1.5570 cd         1 HF1       0.445714
     66 C30         -3.6860    -2.7420    -4.2320 c3         1 HF1      -0.003279
     67 C31         -3.9390    -0.3420    -3.6750 ca         1 HF1      -0.242965
     68 C32         -3.6330     1.0200    -3.8380 ca         1 HF1       0.004199
     69 C33         -4.0240     3.3270    -3.3610 cd         1 HF1       0.245373
     70 H           -9.2110    -3.2920    -4.0730 hn         1 HF1       0.144511
     71 H2          -6.5110    -4.4420    -3.8910 h1         1 HF1       0.072674
     72 H3          -7.6740    -2.3700    -5.4700 hc         1 HF1       0.046389
     73 H4          -6.4850    -1.5670    -4.4720 hc         1 HF1       0.046389
     74 H5          -6.7240    -3.9740    -7.5080 h4         1 HF1       0.158431
     75 H6          -2.7920    -4.4540    -6.2240 h5         1 HF1       0.134138
     76 H8          -3.3450     6.8950    -4.1240 hn         1 HF1       0.337440
     77 H9          -1.2270     0.7480    -6.1890 ha         1 HF1       0.197788
     78 H10         -4.7170    -0.6600    -2.9910 ha         1 HF1       0.155870
     79 H11         -5.2080     2.4540    -1.3080 h1         1 HF1       0.108936
     80 H12         -4.8670     0.7500    -1.5490 h1         1 HF1       0.108936
     81 H13         -6.6360     0.5470    -3.2220 h1         1 HF1       0.143225
     82 H14         -6.8350     3.3460    -3.0400 ho         1 HF1       0.412530
     83 H15         -7.5880     2.3180    -0.9290 h1         1 HF1       0.135539
     84 H16         -7.0800    -0.4580    -1.0160 ho         1 HF1       0.460505
     85 H17        -16.8990     0.2410     1.5520 h2         1 HF1       0.174336
     86 H18         -9.2020     1.9400    -2.7740 h1         1 HF1       0.094586
     87 H19        -10.7850     1.1520    -1.1970 ho         1 HF1       0.359030
     88 H20        -21.1990     0.9080     0.6140 h5         1 HF1       0.094919
     89 H21        -16.6880    -2.4840     1.4230 h1         1 HF1       0.006785
     90 H22        -15.0590    -2.0180     3.2740 ho         1 HF1       0.469115
     91 H23         -9.2200    -0.9480    -1.8200 h1         1 HF1       0.104521
     92 H24         -8.7030    -0.3720    -3.4340 h1         1 HF1       0.104521
     93 H25        -14.7590    -2.4070    -0.0330 h1         1 HF1       0.031204
     94 H26        -13.0850    -3.1660     1.1590 ho         1 HF1       0.469993
     95 H27        -13.6040    -0.3010     1.8560 h1         1 HF1       0.096796
     96 H28        -12.7590     0.6050    -0.3770 h1         1 HF1       0.094408
     97 H29        -11.9440    -0.8230     0.3180 h1         1 HF1       0.094408
     98 H30        -21.2930    -0.0160    -3.7790 hn         1 HF1       0.451915
     99 H31        -19.7070    -0.6380    -4.1650 hn         1 HF1       0.423380
    100 H32        -15.6610    -1.3130    -1.7500 h5         1 HF1       0.151270
    101 H33         -1.1130    -2.7670    -5.4780 hc         1 HF1       0.073724
    102 H34         -0.5620    -1.4570    -6.5130 hc         1 HF1       0.073724
    103 H35         -2.0240    -2.3560    -6.9260 hc         1 HF1       0.073724
    104 H36         -2.8010    -3.3580    -4.0610 h1         1 HF1       0.071149
    105 H37         -4.3080    -2.8280    -3.3420 h1         1 HF1       0.071149
    106 NNM         -6.3710    -3.7720    -1.4220 ns         1 HF1      -0.265096
    107 CNM         -6.3260    -3.4330     0.0310 c3         1 HF1      -0.052966
    108 HNM         -6.5440    -4.7360    -1.6820 hn         1 HF1       0.066217
    109 H1M         -5.8730    -2.4440     0.0960 h1         1 HF1       0.069588
    110 H2M         -7.3050    -3.4260     0.5100 h1         1 HF1       0.069588
    111 H3M         -5.6730    -4.1310     0.5560 h1         1 HF1       0.069588
@<TRIPOS>BOND
     1     1     2 1   
     2     1     4 1   
     3     1     5 1   
     4     1     6 1   
     5     2     3 2   
     6     2    10 1   
     7     7    16 1   
     8     7    18 1   
     9     7    21 1   
    10     7    24 1   
    11     8    21 1   
    12     8    36 1   
    13     8    42 1   
    14     8    53 1   
    15     9    10 1   
    16     9    11 1   
    17     9    14 1   
    18     9    71 1   
    19    10    70 1   
    20    11    13 2   
    21    11   106 1   
    22    12    17 1   
    23    12    22 1   
    24    12    66 1   
    25    14    17 1   
    26    14    72 1   
    27    14    73 1   
    28    15    19 1   
    29    15    22 2   
    30    17    19 2   
    31    19    74 1   
    32    20    43 1   
    33    20    69 2   
    34    22    75 1   
    35    23    46 ar  
    36    23    61 ar  
    37    24    25 1   
    38    25    28 1   
    39    25    91 1   
    40    25    92 1   
    41    26    43 1   
    42    26    52 1   
    43    26    76 1   
    44    27    28 1   
    45    27    87 1   
    46    28    31 1   
    47    28    86 1   
    48    29    46 ar  
    49    29    54 ar  
    50    30    31 1   
    51    30    84 1   
    52    31    34 1   
    53    31    83 1   
    54    32    56 2   
    55    32    59 1   
    56    33    34 1   
    57    33    82 1   
    58    34    37 1   
    59    34    81 1   
    60    35    61 1   
    61    35    98 1   
    62    35    99 1   
    63    37    44 1   
    64    37    79 1   
    65    37    80 1   
    66    38    57 1   
    67    38    65 2   
    68    39    43 2   
    69    40    41 1   
    70    40    48 1   
    71    40    51 1   
    72    40    85 1   
    73    41    54 1   
    74    41    65 1   
    75    44    68 1   
    76    44    69 1   
    77    45    48 1   
    78    45    90 1   
    79    46    88 1   
    80    47    50 1   
    81    47    94 1   
    82    48    50 1   
    83    48    89 1   
    84    49    52 2   
    85    50    55 1   
    86    50    93 1   
    87    51    55 1   
    88    52    56 1   
    89    53    58 1   
    90    54    57 ar  
    91    55    58 1   
    92    55    95 1   
    93    56    69 1   
    94    57    61 ar  
    95    58    96 1   
    96    58    97 1   
    97    59    60 ar  
    98    59    68 ar  
    99    60    62 ar  
   100    60    77 1   
   101    62    63 1   
   102    62    64 ar  
   103    63   101 1   
   104    63   102 1   
   105    63   103 1   
   106    64    66 1   
   107    64    67 ar  
   108    65   100 1   
   109    66   104 1   
   110    66   105 1   
   111    67    68 ar  
   112    67    78 1   
   113   106   107 1   
   114   106   108 1   
   115   107   109 1   
   116   107   110 1   
   117   107   111 1   
@<TRIPOS>SUBSTRUCTURE
     1 HF1         1 TEMP              0 ****  ****    0 ROOT
