@<TRIPOS>MOLECULE
MaDA_capped
  111   117     1     0     0
SMALL
USER_CHARGES


@<TRIPOS>ATOM
      1 CMA    -10.5040   -5.5050   -3.2300 c         1 ACE     -0.417079
      2 CAC     -9.0050   -5.0470   -3.0930 c         1 ACE      0.671591
      3 OAC     -8.1980   -5.7330   -2.5150 o         1 ACE     -0.607262
      4 H1A    -11.0989   -4.9562   -3.9601 h         1 ACE      0.131944
      5 H2A    -11.0292   -5.5780   -2.2777 h         1 ACE      0.131944
      6 H3A    -10.5140   -6.5668   -3.4762 h         1 ACE      0.131944
      7 P1     -11.2773   -1.4038   -3.8188 p         1 HF1      0.900914
      8 P2     -12.6444   -2.6800   -1.5601 p         1 HF1      0.789009
      9 CA      -7.0670   -3.5070   -3.7450 c         1 HF1      0.019425
     10 N       -8.4910   -3.8960   -3.6930 n         1 HF1     -0.294469
     11 C       -6.6140   -2.9510   -2.3810 c         1 HF1      0.536537
     12 N2      -4.3829   -3.3125   -5.3759 n         1 HF1     -0.033814
     13 O       -6.5710   -1.7610   -2.1400 o         1 HF1     -0.517184
     14 C3      -6.7630   -2.5367   -4.8933 c         1 HF1     -0.027356
     15 N3      -4.6502   -4.4756   -7.2497 n         1 HF1     -0.581620
     16 O3     -12.5832   -0.9925   -4.3575 o         1 HF1     -0.683463
     17 C4      -5.7051   -3.1297   -5.7674 c         1 HF1      0.067525
     18 O4     -10.1825   -1.9432   -4.6916 o         1 HF1     -0.628053
     19 C5      -5.8299   -3.8477   -6.9190 c         1 HF1      0.291546
     20 N5      -4.6815    4.2459   -2.7211 n         1 HF1     -0.590171
     21 O5     -11.4171   -2.4845   -2.6074 o         1 HF1     -0.170539
     22 C6      -3.8188   -4.1354   -6.3060 c         1 HF1      0.385271
     23 N6     -20.8782    0.3437   -1.3238 n         1 HF1     -0.776797
     24 O6     -10.6898   -0.1112   -3.0006 o         1 HF1     -0.374445
     25 C7      -9.3427   -0.1624   -2.5733 c         1 HF1      0.004817
     26 N7      -3.4561    5.9068   -3.9459 n         1 HF1     -0.484579
     27 O7      -9.9212    1.4665   -0.8977 o         1 HF1     -0.592052
     28 C8      -9.0446    1.2002   -1.9800 c         1 HF1      0.105393
     29 N8     -19.2695    0.2513    0.4585 n         1 HF1     -0.658845
     30 O8      -7.2038    0.3857   -0.5478 o         1 HF1     -0.661483
     31 C9      -7.6180    1.3664   -1.4750 c         1 HF1      0.032139
     32 N9      -2.3775    2.7068   -5.0433 n         1 HF1     -0.519595
     33 O9      -6.9263    2.5136   -3.5233 o         1 HF1     -0.592477
     34 C10     -6.6135    1.4653   -2.6261 c         1 HF1      0.041590
     35 N10    -20.3819   -0.3225   -3.4911 n         1 HF1     -0.810725
     36 O10    -12.0445   -3.1509   -0.2662 o         1 HF1     -0.660060
     37 C11     -5.2081    1.6530   -2.0430 c         1 HF1     -0.017084
     38 N11    -17.6257   -0.9543   -2.4632 n         1 HF1     -0.480812
     39 O11     -5.0263    6.4759   -2.4411 o         1 HF1     -0.572897
     40 C12    -16.3092   -0.3993    0.8937 c         1 HF1      0.037476
     41 N12    -17.1070   -0.5901   -0.3090 n         1 HF1     -0.136878
     42 O12    -13.7522   -3.4220   -2.2001 o         1 HF1     -0.606157
     43 C13     -4.4378    5.5770   -2.9850 c         1 HF1      0.751707
     44 N13     -4.2434    2.0109   -3.0898 n         1 HF1     -0.035977
     45 O13    -15.7977   -1.4605    2.9876 o         1 HF1     -0.706681
     46 C14    -20.4596    0.5073   -0.0697 c         1 HF1      0.657779
     47 O14    -13.8387   -2.9028    1.7492 o         1 HF1     -0.688913
     48 C15    -15.9394   -1.7073    1.6002 c         1 HF1      0.343418
     49 O15     -1.9333    5.3926   -5.5449 o         1 HF1     -0.513020
     50 C16    -14.5890   -2.0108    0.9753 c         1 HF1      0.147163
     51 O16    -15.1011    0.2300    0.5261 o         1 HF1     -0.375162
     52 C17     -2.7232    5.0447   -4.7077 c         1 HF1      0.461513
     53 O17    -13.1466   -1.1367   -1.3419 o         1 HF1     -0.333874
     54 C18    -18.4254   -0.2350   -0.4501 c         1 HF1      0.561264
     55 C19    -13.9856   -0.6064    0.8760 c         1 HF1      0.080877
     56 C20     -3.0175    3.6009   -4.3909 c         1 HF1      0.442575
     57 C21    -18.7144   -0.4712   -1.7898 c         1 HF1      0.051546
     58 C22    -12.8664   -0.4557   -0.1345 c         1 HF1     -0.008138
     59 C23     -2.6756    1.3877   -4.7866 c         1 HF1      0.317135
     60 C24     -1.9849    0.4051   -5.4981 c         1 HF1     -0.215846
     61 C25    -20.0043   -0.1489   -2.2137 c         1 HF1      0.760875
     62 C26     -2.2493   -0.9301   -5.3261 c         1 HF1      0.007484
     63 C27     -1.4485   -1.9366   -6.1008 c         1 HF1     -0.176260
     64 C28     -3.2838   -1.2909   -4.4234 c         1 HF1      0.033447
     65 C29    -16.6816   -1.0084   -1.5570 c         1 HF1      0.445714
     66 C30     -3.6859   -2.7422   -4.2325 c         1 HF1     -0.003279
     67 C31     -3.9389   -0.3416   -3.6751 c         1 HF1     -0.242965
     68 C32     -3.6326    1.0202   -3.8376 c         1 HF1      0.004199
     69 C33     -4.0237    3.3269   -3.3613 c         1 HF1      0.245373
     70 H       -9.2110   -3.2920   -4.0730 h         1 HF1      0.144511
     71 H2      -6.5110   -4.4420   -3.8910 h         1 HF1      0.072674
     72 H3      -7.6741   -2.3697   -5.4701 h         1 HF1      0.046389
     73 H4      -6.4854   -1.5674   -4.4723 h         1 HF1      0.046389
     74 H5      -6.7239   -3.9737   -7.5079 h         1 HF1      0.158431
     75 H6      -2.7924   -4.4541   -6.2236 h         1 HF1      0.134138
     76 H8      -3.3448    6.8952   -4.1237 h         1 HF1      0.337440
     77 H9      -1.2267    0.7477   -6.1894 h         1 HF1      0.197788
     78 H10     -4.7173   -0.6600   -2.9913 h         1 HF1      0.155870
     79 H11     -5.2081    2.4540   -1.3081 h         1 HF1      0.108936
     80 H12     -4.8667    0.7502   -1.5487 h         1 HF1      0.108936
     81 H13     -6.6364    0.5475   -3.2217 h         1 HF1      0.143225
     82 H14     -6.8351    3.3462   -3.0403 h         1 HF1      0.412530
     83 H15     -7.5884    2.3185   -0.9290 h         1 HF1      0.135539
     84 H16     -7.0798   -0.4582   -1.0155 h         1 HF1      0.460505
     85 H17    -16.8992    0.2415    1.5518 h         1 HF1      0.174336
     86 H18     -9.2019    1.9404   -2.7743 h         1 HF1      0.094586
     87 H19    -10.7854    1.1523   -1.1974 h         1 HF1      0.359030
     88 H20    -21.1993    0.9080    0.6137 h         1 HF1      0.094919
     89 H21    -16.6884   -2.4843    1.4230 h         1 HF1      0.006785
     90 H22    -15.0593   -2.0178    3.2740 h         1 HF1      0.469115
     91 H23     -9.2204   -0.9477   -1.8196 h         1 HF1      0.104521
     92 H24     -8.7030   -0.3717   -3.4343 h         1 HF1      0.104521
     93 H25    -14.7587   -2.4066   -0.0328 h         1 HF1      0.031204
     94 H26    -13.0846   -3.1657    1.1592 h         1 HF1      0.469993
     95 H27    -13.6035   -0.3006    1.8561 h         1 HF1      0.096796
     96 H28    -12.7592    0.6048   -0.3768 h         1 HF1      0.094408
     97 H29    -11.9437   -0.8226    0.3175 h         1 HF1      0.094408
     98 H30    -21.2925   -0.0159   -3.7785 h         1 HF1      0.451915
     99 H31    -19.7075   -0.6382   -4.1655 h         1 HF1      0.423380
    100 H32    -15.6607   -1.3133   -1.7500 h         1 HF1      0.151270
    101 H33     -1.1131   -2.7671   -5.4778 h         1 HF1      0.073724
    102 H34     -0.5625   -1.4574   -6.5135 h         1 HF1      0.073724
    103 H35     -2.0242   -2.3558   -6.9261 h         1 HF1      0.073724
    104 H36     -2.8015   -3.3577   -4.0606 h         1 HF1      0.071149
    105 H37     -4.3084   -2.8279   -3.3420 h         1 HF1      0.071149
    106 NNM     -6.3710   -3.7720   -1.4220 n         1 NME     -0.265096
    107 CNM     -6.3260   -3.4330    0.0310 c         1 NME     -0.052966
    108 HNM     -6.5440   -4.7360   -1.6820 h         1 NME      0.066217
    109 H1M     -5.8733   -2.4436    0.0960 h         1 NME      0.069588
    110 H2M     -7.3049   -3.4260    0.5103 h         1 NME      0.069588
    111 H3M     -5.6733   -4.1306    0.5558 h         1 NME      0.069588
@<TRIPOS>BOND
     1    1    2 1
     2    1    4 1
     3    1    5 1
     4    1    6 1
     5    2    3 1
     6    2   10 1
     7    7   16 1
     8    7   18 1
     9    7   21 1
    10    7   24 1
    11    8   21 1
    12    8   36 1
    13    8   42 1
    14    8   53 1
    15    9   10 1
    16    9   11 1
    17    9   14 1
    18    9   71 1
    19   10   70 1
    20   11   13 1
    21   11  106 1
    22   12   17 1
    23   12   22 1
    24   12   66 1
    25   14   17 1
    26   14   72 1
    27   14   73 1
    28   15   19 1
    29   15   22 1
    30   17   19 1
    31   19   74 1
    32   20   43 1
    33   20   69 1
    34   22   75 1
    35   23   46 1
    36   23   61 1
    37   24   25 1
    38   25   28 1
    39   25   91 1
    40   25   92 1
    41   26   43 1
    42   26   52 1
    43   26   76 1
    44   27   28 1
    45   27   87 1
    46   28   31 1
    47   28   86 1
    48   29   46 1
    49   29   54 1
    50   30   31 1
    51   30   84 1
    52   31   34 1
    53   31   83 1
    54   32   56 1
    55   32   59 1
    56   33   34 1
    57   33   82 1
    58   34   37 1
    59   34   81 1
    60   35   61 1
    61   35   98 1
    62   35   99 1
    63   37   44 1
    64   37   79 1
    65   37   80 1
    66   38   57 1
    67   38   65 1
    68   39   43 1
    69   40   41 1
    70   40   48 1
    71   40   51 1
    72   40   85 1
    73   41   54 1
    74   41   65 1
    75   44   68 1
    76   44   69 1
    77   45   48 1
    78   45   90 1
    79   46   88 1
    80   47   50 1
    81   47   94 1
    82   48   50 1
    83   48   89 1
    84   49   52 1
    85   50   55 1
    86   50   93 1
    87   51   55 1
    88   52   56 1
    89   53   58 1
    90   54   57 1
    91   55   58 1
    92   55   95 1
    93   56   69 1
    94   57   61 1
    95   58   96 1
    96   58   97 1
    97   59   60 1
    98   59   68 1
    99   60   62 1
   100   60   77 1
   101   62   63 1
   102   62   64 1
   103   63  101 1
   104   63  102 1
   105   63  103 1
   106   64   66 1
   107   64   67 1
   108   65  100 1
   109   66  104 1
   110   66  105 1
   111   67   68 1
   112   67   78 1
   113  106  107 1
   114  106  108 1
   115  107  109 1
   116  107  110 1
   117  107  111 1
@<TRIPOS>SUBSTRUCTURE
     1 MaDA_capped        1 TEMP              0 ****  ****    0 ROOT
